external_data/tamu_texas_td/distribution_sample/p1uhs0_1247--p1udt2580/Lines.dss
New Line.l(r:p1udt56lv-p1ulv5112) Units=km Length=0.013015 bus1=p1udt56lv.1.2 bus2=p1ulv5112.1.2 switch=n enabled=y phases=2 Linecode=1P_UG_AL_1/0_Brenau_2

New Line.l(r:p1udt56lv-p1ulv5450) Units=km Length=0.012951700000000002 bus1=p1udt56lv.1.2 bus2=p1ulv5450.1.2 switch=n enabled=y phases=2 Linecode=1P_UG_AL_2/0_Converse_2

New Line.l(r:p1udm196-p1ulv58) Units=km Length=0.0191124 bus1=p1udm196.1.2 bus2=p1ulv58.1.2 switch=n enabled=y phases=2 Linecode=1P_UG_AL_1/0_Brenau_2

New Line.l(r:p1udm196-p1ulv4300) Units=km Length=0.017446900000000005 bus1=p1udm196.1.2 bus2=p1ulv4300.1.2 switch=n enabled=y phases=2 Linecode=1P_UG_AL_2/0_Converse_2

New Line.l(r:p1udm196-p1udt56lv) Units=km Length=0.00878206 bus1=p1udt56lv.1.2 bus2=p1udm196.1.2 switch=n enabled=y phases=2 Linecode=1P_UG_AL_4/0_Sweetbriar_2

New Line.l(r:p1udt57lv-p1ulv11687) Units=km Length=0.0147684 bus1=p1udt57lv.1.2 bus2=p1ulv11687.1.2 switch=n enabled=y phases=2 Linecode=1P_UG_AL_1/0_Brenau_2

New Line.l(r:p1udm201-p1ulv2089) Units=km Length=0.0142506 bus1=p1udm201.1.2 bus2=p1ulv2089.1.2 switch=n enabled=y phases=2 Linecode=1P_UG_AL_2/0_Converse_2

New Line.l(r:p1udm201-p1ulv4189) Units=km Length=0.0165503 bus1=p1udm201.1.2 bus2=p1ulv4189.1.2 switch=n enabled=y phases=2 Linecode=1P_UG_AL_1/0_Brenau_2

New Line.l(r:p1udm200-p1ulv59) Units=km Length=0.0144832 bus1=p1udm200.1.2 bus2=p1ulv59.1.2 switch=n enabled=y phases=2 Linecode=1P_UG_AL_1/0_Brenau_2

New Line.l(r:p1udm200-p1udm201) Units=km Length=0.0136369 bus1=p1udm201.1.2 bus2=p1udm200.1.2 switch=n enabled=y phases=2 Linecode=1P_UG_AL_1/0_Brenau_2

New Line.l(r:p1udm201-p1udt57lv) Units=km Length=0.0153882 bus1=p1udt57lv.1.2 bus2=p1udm201.1.2 switch=n enabled=y phases=2 Linecode=1P_UG_AL_4/0_Sweetbriar_2

New Line.l(r:p1udm203-p1ulv6260) Units=km Length=0.0150518 bus1=p1udm203.1.2 bus2=p1ulv6260.1.2 switch=n enabled=y phases=2 Linecode=1P_UG_AL_1/0_Brenau_2

New Line.l(r:p1udm204-p1ulv6911) Units=km Length=0.0130255 bus1=p1udm204.1.2 bus2=p1ulv6911.1.2 switch=n enabled=y phases=2 Linecode=1P_UG_AL_1/0_Brenau_2

New Line.l(r:p1udm204-p1ulv7882) Units=km Length=0.0140689 bus1=p1udm204.1.2 bus2=p1ulv7882.1.2 switch=n enabled=y phases=2 Linecode=1P_UG_AL_1/0_Brenau_2

New Line.l(r:p1udm203-p1udm204) Units=km Length=0.0136282 bus1=p1udm203.1.2 bus2=p1udm204.1.2 switch=n enabled=y phases=2 Linecode=1P_UG_AL_2/0_Converse_2

New Line.l(r:p1udm203-p1udt57lv) Units=km Length=0.006590980000000001 bus1=p1udt57lv.1.2 bus2=p1udm203.1.2 switch=n enabled=y phases=2 Linecode=1P_UG_AL_4/0_Sweetbriar_2

New Line.l(r:p1udt61lv-p1ulv63) Units=km Length=0.00945788 bus1=p1udt61lv.1.2 bus2=p1ulv63.1.2 switch=n enabled=y phases=2 Linecode=1P_OH_AL_2/0_Rucina_2

New Line.l(r:p1udm221-p1ulv420) Units=km Length=0.0113963 bus1=p1udm221.1.2 bus2=p1ulv420.1.2 switch=n enabled=y phases=2 Linecode=1P_OH_AL_2/0_Rucina_2

New Line.l(r:p1udm221-p1udt61lv) Units=km Length=0.054082000000000005 bus1=p1udt61lv.1.2 bus2=p1udm221.1.2 switch=n enabled=y phases=2 Linecode=1P_OH_AL_4/0_Zuzara_2

New Line.l(r:p1udm222-p1ulv7266) Units=km Length=0.0114934 bus1=p1udm222.1.2 bus2=p1ulv7266.1.2 switch=n enabled=y phases=2 Linecode=1P_OH_AL_2/0_Rucina_2

New Line.l(r:p1udm222-p1udt61lv) Units=km Length=0.070378 bus1=p1udt61lv.1.2 bus2=p1udm222.1.2 switch=n enabled=y phases=2 Linecode=1P_OH_AL_4/0_Zuzara_2

New Line.l(r:p1udt86lv-p1ulv89) Units=km Length=0.0141132 bus1=p1udt86lv.1.2 bus2=p1ulv89.1.2 switch=n enabled=y phases=2 Linecode=1P_OH_AL_2/0_Rucina_2

New Line.l(r:p1udm323-p1ulv8938) Units=km Length=0.0141393 bus1=p1udm323.1.2 bus2=p1ulv8938.1.2 switch=n enabled=y phases=2 Linecode=1P_OH_AL_2/0_Rucina_2

New Line.l(r:p1udm323-p1udt86lv) Units=km Length=0.00784115 bus1=p1udt86lv.1.2 bus2=p1udm323.1.2 switch=n enabled=y phases=2 Linecode=1P_OH_AL_2/0_Rucina_2

New Line.l(r:p1udm332-p1ulv1343) Units=km Length=0.0129521 bus1=p1udm332.1.2 bus2=p1ulv1343.1.2 switch=n enabled=y phases=2 Linecode=1P_OH_AL_2/0_Rucina_2

New Line.l(r:p1udm331-p1ulv91) Units=km Length=0.0105445 bus1=p1udm331.1.2 bus2=p1ulv91.1.2 switch=n enabled=y phases=2 Linecode=1P_OH_AL_2/0_Rucina_2

New Line.l(r:p1udm331-p1ulv4315) Units=km Length=0.0100815 bus1=p1udm331.1.2 bus2=p1ulv4315.1.2 switch=n enabled=y phases=2 Linecode=1P_OH_AL_2/0_Rucina_2

New Line.l(r:p1udm331-p1udm332) Units=km Length=0.0180596 bus1=p1udm332.1.2 bus2=p1udm331.1.2 switch=n enabled=y phases=2 Linecode=1P_OH_AL_2/0_Rucina_2

New Line.l(r:p1udm332-p1udt88lv) Units=km Length=0.00996393 bus1=p1udt88lv.1.2 bus2=p1udm332.1.2 switch=n enabled=y phases=2 Linecode=1P_OH_AL_2/0_Rucina_2

New Line.l(r:p1udm334-p1ulv4566) Units=km Length=0.019951 bus1=p1udm334.1.2 bus2=p1ulv4566.1.2 switch=n enabled=y phases=2 Linecode=1P_OH_AL_2/0_Rucina_2

New Line.l(r:p1udm334-p1ulv6542) Units=km Length=0.0136849 bus1=p1udm334.1.2 bus2=p1ulv6542.1.2 switch=n enabled=y phases=2 Linecode=1P_OH_AL_2/0_Rucina_2

New Line.l(r:p1udm334-p1udt88lv) Units=km Length=0.0171391 bus1=p1udt88lv.1.2 bus2=p1udm334.1.2 switch=n enabled=y phases=2 Linecode=1P_OH_AL_2/0_Rucina_2

New Line.l(r:p1udm336-p1ulv92) Units=km Length=0.0117274 bus1=p1udm336.1.2 bus2=p1ulv92.1.2 switch=n enabled=y phases=2 Linecode=1P_UG_AL_1/0_Brenau_2

New Line.l(r:p1udm336-p1udt89lv) Units=km Length=0.00996386 bus1=p1udt89lv.1.2 bus2=p1udm336.1.2 switch=n enabled=y phases=2 Linecode=1P_UG_AL_1/0_Brenau_2

New Line.l(r:p1udm337-p1ulv10880) Units=km Length=0.0348855 bus1=p1udm337.1.2 bus2=p1ulv10880.1.2 switch=n enabled=y phases=2 Linecode=1P_UG_AL_1/0_Brenau_2

New Line.l(r:p1udm337-p1udt89lv) Units=km Length=0.0099637 bus1=p1udt89lv.1.2 bus2=p1udm337.1.2 switch=n enabled=y phases=2 Linecode=1P_UG_AL_1/0_Brenau_2

New Line.l(r:p1udt93lv-p1ulv455) Units=km Length=0.0109119 bus1=p1udt93lv.1.2 bus2=p1ulv455.1.2 switch=n enabled=y phases=2 Linecode=1P_UG_AL_1/0_Brenau_2

New Line.l(r:p1udm353-p1ulv96) Units=km Length=0.0284171 bus1=p1udm353.1.2 bus2=p1ulv96.1.2 switch=n enabled=y phases=2 Linecode=1P_UG_AL_1/0_Brenau_2

New Line.l(r:p1udm353-p1ulv1995) Units=km Length=0.0208183 bus1=p1udm353.1.2 bus2=p1ulv1995.1.2 switch=n enabled=y phases=2 Linecode=1P_UG_AL_1/0_Brenau_2

New Line.l(r:p1udm359-p1ulv8943) Units=km Length=0.010472900000000002 bus1=p1udm359.1.2 bus2=p1ulv8943.1.2 switch=n enabled=y phases=2 Linecode=1P_UG_AL_1/0_Brenau_2

New Line.l(r:p1udm353-p1udm359) Units=km Length=0.04667700000000001 bus1=p1udm353.1.2 bus2=p1udm359.1.2 switch=n enabled=y phases=2 Linecode=1P_UG_AL_1/0_Brenau_2

New Line.l(r:p1udm353-p1udt93lv) Units=km Length=0.00934255 bus1=p1udt93lv.1.2 bus2=p1udm353.1.2 switch=n enabled=y phases=2 Linecode=1P_UG_AL_2/0_Converse_2

New Line.l(r:p1udm358-p1ulv5154) Units=km Length=0.0208523 bus1=p1udm358.1.2 bus2=p1ulv5154.1.2 switch=n enabled=y phases=2 Linecode=1P_UG_AL_1/0_Brenau_2

New Line.l(r:p1udm357-p1ulv5042) Units=km Length=0.0116305 bus1=p1udm357.1.2 bus2=p1ulv5042.1.2 switch=n enabled=y phases=2 Linecode=1P_UG_AL_2/0_Converse_2

New Line.l(r:p1udm357-p1ulv12072) Units=km Length=0.0201619 bus1=p1udm357.1.2 bus2=p1ulv12072.1.2 switch=n enabled=y phases=2 Linecode=1P_UG_AL_1/0_Brenau_2

New Line.l(r:p1udm355-p1ulv1736) Units=km Length=0.0198591 bus1=p1udm355.1.2 bus2=p1ulv1736.1.2 switch=n enabled=y phases=2 Linecode=1P_UG_AL_1/0_Brenau_2

New Line.l(r:p1udm355-p1udm357) Units=km Length=0.00930734 bus1=p1udm357.1.2 bus2=p1udm355.1.2 switch=n enabled=y phases=2 Linecode=1P_UG_AL_1/0_Brenau_2

New Line.l(r:p1udm357-p1udm358) Units=km Length=0.0186219 bus1=p1udm358.1.2 bus2=p1udm357.1.2 switch=n enabled=y phases=2 Linecode=1P_UG_AL_4/0_Sweetbriar_2

New Line.l(r:p1udm358-p1udt93lv) Units=km Length=0.009335350000000001 bus1=p1udt93lv.1.2 bus2=p1udm358.1.2 switch=n enabled=y phases=2 Linecode=1P_UG_AL_4/0_Sweetbriar_2

New Line.l(r:p1udt94lv-p1ulv97) Units=km Length=0.014293900000000002 bus1=p1udt94lv.1.2 bus2=p1ulv97.1.2 switch=n enabled=y phases=2 Linecode=1P_OH_AL_2/0_Rucina_2

New Line.l(r:p1udm362-p1ulv6036) Units=km Length=0.0222907 bus1=p1udm362.1.2 bus2=p1ulv6036.1.2 switch=n enabled=y phases=2 Linecode=1P_OH_AL_2/0_Rucina_2

New Line.l(r:p1udm362-p1udt94lv) Units=km Length=0.0619462 bus1=p1udt94lv.1.2 bus2=p1udm362.1.2 switch=n enabled=y phases=2 Linecode=1P_OH_AL_4/0_Zuzara_2

New Line.l(r:p1udm363-p1ulv10511) Units=km Length=0.016346 bus1=p1udm363.1.2 bus2=p1ulv10511.1.2 switch=n enabled=y phases=2 Linecode=1P_OH_AL_2/0_Rucina_2

New Line.l(r:p1udm363-p1udt94lv) Units=km Length=0.053017600000000005 bus1=p1udt94lv.1.2 bus2=p1udm363.1.2 switch=n enabled=y phases=2 Linecode=1P_OH_AL_4/0_Zuzara_2

New Line.l(r:p1udm364-p1ulv98) Units=km Length=0.0300242 bus1=p1udm364.1.2 bus2=p1ulv98.1.2 switch=n enabled=y phases=2 Linecode=1P_UG_AL_1/0_Brenau_2

New Line.l(r:p1udm364-p1udt95lv) Units=km Length=0.00985185 bus1=p1udt95lv.1.2 bus2=p1udm364.1.2 switch=n enabled=y phases=2 Linecode=1P_UG_AL_1/0_Brenau_2

New Line.l(r:p1udm365-p1ulv1861) Units=km Length=0.025200600000000004 bus1=p1udm365.1.2 bus2=p1ulv1861.1.2 switch=n enabled=y phases=2 Linecode=1P_UG_AL_1/0_Brenau_2

New Line.l(r:p1udm365-p1udt95lv) Units=km Length=0.0196754 bus1=p1udt95lv.1.2 bus2=p1udm365.1.2 switch=n enabled=y phases=2 Linecode=1P_UG_AL_1/0_Brenau_2

New Line.l(r:p1udt97lv-p1ulv100) Units=km Length=0.012989 bus1=p1udt97lv.1.2 bus2=p1ulv100.1.2 switch=n enabled=y phases=2 Linecode=1P_OH_AL_2/0_Rucina_2

New Line.l(r:p1udm368-p1ulv643) Units=km Length=0.017458 bus1=p1udm368.1.2 bus2=p1ulv643.1.2 switch=n enabled=y phases=2 Linecode=1P_OH_AL_2/0_Rucina_2

New Line.l(r:p1udm368-p1udt97lv) Units=km Length=0.011770600000000003 bus1=p1udt97lv.1.2 bus2=p1udm368.1.2 switch=n enabled=y phases=2 Linecode=1P_OH_AL_2/0_Rucina_2

New Line.l(r:p1udm369-p1ulv7433) Units=km Length=0.0424337 bus1=p1udm369.1.2 bus2=p1ulv7433.1.2 switch=n enabled=y phases=2 Linecode=1P_OH_AL_4/0_Zuzara_2

New Line.l(r:p1udm369-p1ulv10395) Units=km Length=0.0136511 bus1=p1udm369.1.2 bus2=p1ulv10395.1.2 switch=n enabled=y phases=2 Linecode=1P_OH_AL_2/0_Rucina_2

New Line.l(r:p1udm369-p1udt97lv) Units=km Length=0.0169393 bus1=p1udt97lv.1.2 bus2=p1udm369.1.2 switch=n enabled=y phases=2 Linecode=1P_OH_AL_2/0_Rucina_2

New Line.l(r:p1udt99lv-p1ulv763) Units=km Length=0.0109349 bus1=p1udt99lv.1.2 bus2=p1ulv763.1.2 switch=n enabled=y phases=2 Linecode=1P_UG_AL_1/0_Brenau_2

New Line.l(r:p1udm377-p1ulv102) Units=km Length=0.017118200000000004 bus1=p1udm377.1.2 bus2=p1ulv102.1.2 switch=n enabled=y phases=2 Linecode=1P_UG_AL_1/0_Brenau_2

New Line.l(r:p1udm377-p1udt99lv) Units=km Length=0.0253677 bus1=p1udt99lv.1.2 bus2=p1udm377.1.2 switch=n enabled=y phases=2 Linecode=1P_UG_AL_1/0_Brenau_2

New Line.l(r:p1udm378-p1ulv336) Units=km Length=0.0227877 bus1=p1udm378.1.2 bus2=p1ulv336.1.2 switch=n enabled=y phases=2 Linecode=1P_UG_AL_1/0_Brenau_2

New Line.l(r:p1udm378-p1udt99lv) Units=km Length=0.00989161 bus1=p1udt99lv.1.2 bus2=p1udm378.1.2 switch=n enabled=y phases=2 Linecode=1P_UG_AL_1/0_Brenau_2

New Line.l(r:p1udt100lv-p1ulv6550) Units=km Length=0.0118304 bus1=p1udt100lv.1.2 bus2=p1ulv6550.1.2 switch=n enabled=y phases=2 Linecode=1P_OH_AL_2/0_Rucina_2

New Line.l(r:p1udt100lv-p1ulv10035) Units=km Length=0.0192611 bus1=p1udt100lv.1.2 bus2=p1ulv10035.1.2 switch=n enabled=y phases=2 Linecode=1P_OH_AL_2/0_Rucina_2

New Line.l(r:p1udt100lv-p1ulv12069) Units=km Length=0.0165585 bus1=p1udt100lv.1.2 bus2=p1ulv12069.1.2 switch=n enabled=y phases=2 Linecode=1P_OH_AL_2/0_Rucina_2

New Line.l(r:p1udm380-p1ulv103) Units=km Length=0.0191677 bus1=p1udm380.1.2 bus2=p1ulv103.1.2 switch=n enabled=y phases=2 Linecode=1P_OH_AL_2/0_Rucina_2

New Line.l(r:p1udm380-p1ulv646) Units=km Length=0.033495 bus1=p1udm380.1.2 bus2=p1ulv646.1.2 switch=n enabled=y phases=2 Linecode=1P_OH_AL_4/0_Zuzara_2

New Line.l(r:p1udm380-p1udt100lv) Units=km Length=0.0185425 bus1=p1udt100lv.1.2 bus2=p1udm380.1.2 switch=n enabled=y phases=2 Linecode=1P_OH_AL_2/0_Rucina_2

New Line.l(r:p1udm382-p1ulv4571) Units=km Length=0.0124215 bus1=p1udm382.1.2 bus2=p1ulv4571.1.2 switch=n enabled=y phases=2 Linecode=1P_OH_AL_2/0_Rucina_2

New Line.l(r:p1udm382-p1ulv9081) Units=km Length=0.0417755 bus1=p1udm382.1.2 bus2=p1ulv9081.1.2 switch=n enabled=y phases=2 Linecode=1P_OH_AL_4/0_Zuzara_2

New Line.l(r:p1udm382-p1udt100lv) Units=km Length=0.018534300000000004 bus1=p1udt100lv.1.2 bus2=p1udm382.1.2 switch=n enabled=y phases=2 Linecode=1P_OH_AL_2/0_Rucina_2

New Line.l(r:p1udt103lv-p1ulv106) Units=km Length=0.0215771 bus1=p1udt103lv.1.2 bus2=p1ulv106.1.2 switch=n enabled=y phases=2 Linecode=1P_UG_AL_4/0_Sweetbriar_2

New Line.l(r:p1udm400-p1ulv9220) Units=km Length=0.00676003 bus1=p1udm400.1.2 bus2=p1ulv9220.1.2 switch=n enabled=y phases=2 Linecode=1P_UG_AL_1/0_Brenau_2

New Line.l(r:p1udm400-p1udt103lv) Units=km Length=0.00902889 bus1=p1udt103lv.1.2 bus2=p1udm400.1.2 switch=n enabled=y phases=2 Linecode=1P_UG_AL_1/0_Brenau_2

New Line.l(r:p1udt104lv-p1ulv107) Units=km Length=0.0166682 bus1=p1udt104lv.1.2 bus2=p1ulv107.1.2 switch=n enabled=y phases=2 Linecode=1P_OH_AL_2/0_Rucina_2

New Line.l(r:p1udt104lv-p1ulv765) Units=km Length=0.014051 bus1=p1udt104lv.1.2 bus2=p1ulv765.1.2 switch=n enabled=y phases=2 Linecode=1P_OH_AL_2/0_Rucina_2

New Line.l(r:p1udt104lv-p1ulv8954) Units=km Length=0.0225376 bus1=p1udt104lv.1.2 bus2=p1ulv8954.1.2 switch=n enabled=y phases=2 Linecode=1P_OH_AL_2/0_Rucina_2

New Line.l(r:p1udm403-p1ulv6167) Units=km Length=0.00784761 bus1=p1udm403.1.2 bus2=p1ulv6167.1.2 switch=n enabled=y phases=2 Linecode=1P_OH_AL_2/0_Rucina_2

New Line.l(r:p1udm403-p1udt104lv) Units=km Length=0.0343479 bus1=p1udt104lv.1.2 bus2=p1udm403.1.2 switch=n enabled=y phases=2 Linecode=1P_OH_AL_4/0_Zuzara_2

New Line.l(r:p1udm405-p1ulv10524) Units=km Length=0.0212157 bus1=p1udm405.1.2 bus2=p1ulv10524.1.2 switch=n enabled=y phases=2 Linecode=1P_OH_AL_2/0_Rucina_2

New Line.l(r:p1udm405-p1udt104lv) Units=km Length=0.0171785 bus1=p1udt104lv.1.2 bus2=p1udm405.1.2 switch=n enabled=y phases=2 Linecode=1P_OH_AL_2/0_Rucina_2

New Line.l(r:p1udt105lv-p1ulv108) Units=km Length=0.0197483 bus1=p1udt105lv.1.2 bus2=p1ulv108.1.2 switch=n enabled=y phases=2 Linecode=1P_UG_AL_1/0_Brenau_2

New Line.l(r:p1udt105lv-p1ulv6829) Units=km Length=0.0162021 bus1=p1udt105lv.1.2 bus2=p1ulv6829.1.2 switch=n enabled=y phases=2 Linecode=1P_UG_AL_1/0_Brenau_2

New Line.l(r:p1udm408-p1ulv3849) Units=km Length=0.0119595 bus1=p1udm408.1.2 bus2=p1ulv3849.1.2 switch=n enabled=y phases=2 Linecode=1P_UG_AL_1/0_Brenau_2

New Line.l(r:p1udm408-p1udt105lv) Units=km Length=0.00979086 bus1=p1udt105lv.1.2 bus2=p1udm408.1.2 switch=n enabled=y phases=2 Linecode=1P_UG_AL_1/0_Brenau_2

New Line.l(r:p1udm409-p1ulv6826) Units=km Length=0.0172075 bus1=p1udm409.1.2 bus2=p1ulv6826.1.2 switch=n enabled=y phases=2 Linecode=1P_UG_AL_1/0_Brenau_2

New Line.l(r:p1udm407-p1ulv222) Units=km Length=0.0170957 bus1=p1udm407.1.2 bus2=p1ulv222.1.2 switch=n enabled=y phases=2 Linecode=1P_UG_AL_1/0_Brenau_2

New Line.l(r:p1udm407-p1udm409) Units=km Length=0.00979086 bus1=p1udm409.1.2 bus2=p1udm407.1.2 switch=n enabled=y phases=2 Linecode=1P_UG_AL_1/0_Brenau_2

New Line.l(r:p1udm409-p1udt105lv) Units=km Length=0.00979044 bus1=p1udt105lv.1.2 bus2=p1udm409.1.2 switch=n enabled=y phases=2 Linecode=1P_UG_AL_2/0_Converse_2

New Line.l(r:p1udt109lv-p1ulv112) Units=km Length=0.006886700000000001 bus1=p1udt109lv.1.2 bus2=p1ulv112.1.2 switch=n enabled=y phases=2 Linecode=1P_UG_AL_1/0_Brenau_2

New Line.l(r:p1udm423-p1ulv3736) Units=km Length=0.00577444 bus1=p1udm423.1.2 bus2=p1ulv3736.1.2 switch=n enabled=y phases=2 Linecode=1P_UG_AL_1/0_Brenau_2

New Line.l(r:p1udm421-p1ulv2760) Units=km Length=0.030390300000000002 bus1=p1udm421.1.2 bus2=p1ulv2760.1.2 switch=n enabled=y phases=2 Linecode=1P_UG_AL_1/0_Brenau_2

New Line.l(r:p1udm421-p1udm423) Units=km Length=0.00858408 bus1=p1udm423.1.2 bus2=p1udm421.1.2 switch=n enabled=y phases=2 Linecode=1P_UG_AL_1/0_Brenau_2

New Line.l(r:p1udm423-p1udt109lv) Units=km Length=0.0350825 bus1=p1udt109lv.1.2 bus2=p1udm423.1.2 switch=n enabled=y phases=2 Linecode=1P_UG_AL_1/0_Brenau_2

New Line.l(r:p1udm425-p1ulv12312) Units=km Length=0.0165977 bus1=p1udm425.1.2 bus2=p1ulv12312.1.2 switch=n enabled=y phases=2 Linecode=1P_UG_AL_1/0_Brenau_2

New Line.l(r:p1udm422-p1ulv3627) Units=km Length=0.0268653 bus1=p1udm422.1.2 bus2=p1ulv3627.1.2 switch=n enabled=y phases=2 Linecode=1P_UG_AL_1/0_Brenau_2

New Line.l(r:p1udm424-p1ulv5379) Units=km Length=0.007660350000000001 bus1=p1udm424.1.2 bus2=p1ulv5379.1.2 switch=n enabled=y phases=2 Linecode=1P_UG_AL_1/0_Brenau_2

New Line.l(r:p1udm422-p1udm424) Units=km Length=0.00984578 bus1=p1udm422.1.2 bus2=p1udm424.1.2 switch=n enabled=y phases=2 Linecode=1P_UG_AL_1/0_Brenau_2

New Line.l(r:p1udm422-p1udm425) Units=km Length=0.0098437 bus1=p1udm425.1.2 bus2=p1udm422.1.2 switch=n enabled=y phases=2 Linecode=1P_UG_AL_2/0_Converse_2

New Line.l(r:p1udm425-p1udt109lv) Units=km Length=0.0186389 bus1=p1udt109lv.1.2 bus2=p1udm425.1.2 switch=n enabled=y phases=2 Linecode=1P_UG_AL_4/0_Sweetbriar_2

New Line.l(r:p1udm681-p1ulv4762) Units=km Length=0.010423200000000002 bus1=p1udm681.1.2 bus2=p1ulv4762.1.2 switch=n enabled=y phases=2 Linecode=1P_UG_AL_1/0_Brenau_2

New Line.l(r:p1udm681-p1ulv6008) Units=km Length=0.0163676 bus1=p1udm681.1.2 bus2=p1ulv6008.1.2 switch=n enabled=y phases=2 Linecode=1P_UG_AL_1/0_Brenau_2

New Line.l(r:p1udm684-p1ulv12379) Units=km Length=0.0107635 bus1=p1udm684.1.2 bus2=p1ulv12379.1.2 switch=n enabled=y phases=2 Linecode=1P_UG_AL_1/0_Brenau_2

New Line.l(r:p1udm681-p1udm684) Units=km Length=0.00929536 bus1=p1udm681.1.2 bus2=p1udm684.1.2 switch=n enabled=y phases=2 Linecode=1P_UG_AL_1/0_Brenau_2

New Line.l(r:p1udm681-p1udt185lv) Units=km Length=0.00929536 bus1=p1udt185lv.1.2 bus2=p1udm681.1.2 switch=n enabled=y phases=2 Linecode=1P_UG_AL_4/0_Sweetbriar_2

New Line.l(r:p1udm683-p1ulv6122) Units=km Length=0.0170764 bus1=p1udm683.1.2 bus2=p1ulv6122.1.2 switch=n enabled=y phases=2 Linecode=1P_UG_AL_1/0_Brenau_2

New Line.l(r:p1udm680-p1ulv190) Units=km Length=0.0170156 bus1=p1udm680.1.2 bus2=p1ulv190.1.2 switch=n enabled=y phases=2 Linecode=1P_UG_AL_1/0_Brenau_2

New Line.l(r:p1udm680-p1udm683) Units=km Length=0.0185907 bus1=p1udm683.1.2 bus2=p1udm680.1.2 switch=n enabled=y phases=2 Linecode=1P_UG_AL_1/0_Brenau_2

New Line.l(r:p1udm683-p1udt185lv) Units=km Length=0.00929536 bus1=p1udt185lv.1.2 bus2=p1udm683.1.2 switch=n enabled=y phases=2 Linecode=1P_UG_AL_2/0_Converse_2

New Line.l(r:p1udt186lv-p1ulv191) Units=km Length=0.010976 bus1=p1udt186lv.1.2 bus2=p1ulv191.1.2 switch=n enabled=y phases=2 Linecode=1P_UG_AL_1/0_Brenau_2

New Line.l(r:p1udm691-p1ulv195) Units=km Length=0.015942 bus1=p1udm691.1.2 bus2=p1ulv195.1.2 switch=n enabled=y phases=2 Linecode=1P_UG_AL_1/0_Brenau_2

New Line.l(r:p1udm691-p1ulv301) Units=km Length=0.0144391 bus1=p1udm691.1.2 bus2=p1ulv301.1.2 switch=n enabled=y phases=2 Linecode=1P_UG_AL_1/0_Brenau_2

New Line.l(r:p1udm691-p1udt189lv) Units=km Length=0.009595 bus1=p1udt189lv.1.2 bus2=p1udm691.1.2 switch=n enabled=y phases=2 Linecode=1P_UG_AL_2/0_Converse_2

New Line.l(r:p1udm693-p1ulv8914) Units=km Length=0.01497 bus1=p1udm693.1.2 bus2=p1ulv8914.1.2 switch=n enabled=y phases=2 Linecode=1P_UG_AL_2/0_Converse_2

New Line.l(r:p1udm693-p1ulv9551) Units=km Length=0.015418200000000002 bus1=p1udm693.1.2 bus2=p1ulv9551.1.2 switch=n enabled=y phases=2 Linecode=1P_UG_AL_1/0_Brenau_2

New Line.l(r:p1udm693-p1udt189lv) Units=km Length=0.009595 bus1=p1udt189lv.1.2 bus2=p1udm693.1.2 switch=n enabled=y phases=2 Linecode=1P_UG_AL_4/0_Sweetbriar_2

New Line.l(r:p1udt190lv-p1ulv196) Units=km Length=0.031894 bus1=p1udt190lv.1.2 bus2=p1ulv196.1.2 switch=n enabled=y phases=2 Linecode=1P_OH_AL_4/0_Zuzara_2

New Line.l(r:p1udt192lv-p1ulv199) Units=km Length=0.0156888 bus1=p1udt192lv.1.2 bus2=p1ulv199.1.2 switch=n enabled=y phases=2 Linecode=1P_OH_AL_2/0_Rucina_2

New Line.l(r:p1udm703-p1ulv313) Units=km Length=0.0254067 bus1=p1udm703.1.2 bus2=p1ulv313.1.2 switch=n enabled=y phases=2 Linecode=1P_OH_AL_2/0_Rucina_2

New Line.l(r:p1udm703-p1udt192lv) Units=km Length=0.018364700000000005 bus1=p1udt192lv.1.2 bus2=p1udm703.1.2 switch=n enabled=y phases=2 Linecode=1P_OH_AL_2/0_Rucina_2

New Line.l(r:p1udt200lv-p1ulv209) Units=km Length=0.00816324 bus1=p1udt200lv.1.2 bus2=p1ulv209.1.2 switch=n enabled=y phases=2 Linecode=1P_OH_AL_2/0_Rucina_2

New Line.l(r:p1udm742-p1ulv6419) Units=km Length=0.0171577 bus1=p1udm742.1.2 bus2=p1ulv6419.1.2 switch=n enabled=y phases=2 Linecode=1P_OH_AL_2/0_Rucina_2

New Line.l(r:p1udm742-p1udt200lv) Units=km Length=0.0761351 bus1=p1udt200lv.1.2 bus2=p1udm742.1.2 switch=n enabled=y phases=2 Linecode=1P_OH_AL_4/0_Zuzara_2

New Line.l(r:p1udt201lv-p1ulv210) Units=km Length=0.0607128 bus1=p1udt201lv.1.2 bus2=p1ulv210.1.2 switch=n enabled=y phases=2 Linecode=1P_OH_AL_4/0_Zuzara_2

New Line.l(r:p1udm744-p1ulv5138) Units=km Length=0.0334743 bus1=p1udm744.1.2 bus2=p1ulv5138.1.2 switch=n enabled=y phases=2 Linecode=1P_OH_AL_4/0_Zuzara_2

New Line.l(r:p1udm744-p1udt201lv) Units=km Length=0.0186917 bus1=p1udt201lv.1.2 bus2=p1udm744.1.2 switch=n enabled=y phases=2 Linecode=1P_OH_AL_2/0_Rucina_2

New Line.l(r:p1udm745-p1ulv211) Units=km Length=0.00867628 bus1=p1udm745.1.2 bus2=p1ulv211.1.2 switch=n enabled=y phases=2 Linecode=1P_UG_AL_1/0_Brenau_2

New Line.l(r:p1udm745-p1udt202lv) Units=km Length=0.018775800000000002 bus1=p1udt202lv.1.2 bus2=p1udm745.1.2 switch=n enabled=y phases=2 Linecode=1P_UG_AL_1/0_Brenau_2

New Line.l(r:p1udm746-p1ulv12067) Units=km Length=0.03537 bus1=p1udm746.1.2 bus2=p1ulv12067.1.2 switch=n enabled=y phases=2 Linecode=1P_UG_AL_1/0_Brenau_2

New Line.l(r:p1udm746-p1udt202lv) Units=km Length=0.0187822 bus1=p1udt202lv.1.2 bus2=p1udm746.1.2 switch=n enabled=y phases=2 Linecode=1P_UG_AL_1/0_Brenau_2

New Line.l(r:p1udm751-p1ulv9317) Units=km Length=0.00820432 bus1=p1udm751.1.2 bus2=p1ulv9317.1.2 switch=n enabled=y phases=2 Linecode=1P_UG_AL_1/0_Brenau_2

New Line.l(r:p1udm749-p1ulv6284) Units=km Length=0.0192084 bus1=p1udm749.1.2 bus2=p1ulv6284.1.2 switch=n enabled=y phases=2 Linecode=1P_UG_AL_1/0_Brenau_2

New Line.l(r:p1udm747-p1ulv212) Units=km Length=0.0100164 bus1=p1udm747.1.2 bus2=p1ulv212.1.2 switch=n enabled=y phases=2 Linecode=1P_UG_AL_1/0_Brenau_2

New Line.l(r:p1udm747-p1udm749) Units=km Length=0.007692 bus1=p1udm749.1.2 bus2=p1udm747.1.2 switch=n enabled=y phases=2 Linecode=1P_UG_AL_1/0_Brenau_2

New Line.l(r:p1udm749-p1udm751) Units=km Length=0.00768401 bus1=p1udm751.1.2 bus2=p1udm749.1.2 switch=n enabled=y phases=2 Linecode=1P_UG_AL_2/0_Converse_2

New Line.l(r:p1udm750-p1ulv7177) Units=km Length=0.023271 bus1=p1udm750.1.2 bus2=p1ulv7177.1.2 switch=n enabled=y phases=2 Linecode=1P_UG_AL_1/0_Brenau_2

New Line.l(r:p1udm748-p1ulv3601) Units=km Length=0.0301811 bus1=p1udm748.1.2 bus2=p1ulv3601.1.2 switch=n enabled=y phases=2 Linecode=1P_UG_AL_1/0_Brenau_2

New Line.l(r:p1udm748-p1udm750) Units=km Length=0.00887903 bus1=p1udm750.1.2 bus2=p1udm748.1.2 switch=n enabled=y phases=2 Linecode=1P_UG_AL_1/0_Brenau_2

New Line.l(r:p1udm750-p1udm751) Units=km Length=0.0266371 bus1=p1udm751.1.2 bus2=p1udm750.1.2 switch=n enabled=y phases=2 Linecode=1P_UG_AL_2/0_Converse_2

New Line.l(r:p1udm751-p1udt203lv) Units=km Length=0.00887903 bus1=p1udt203lv.1.2 bus2=p1udm751.1.2 switch=n enabled=y phases=2 Linecode=1P_UG_AL_4/0_Sweetbriar_2

New Line.l(r:p1udt204lv-p1ulv6675) Units=km Length=0.0061676 bus1=p1udt204lv.1.2 bus2=p1ulv6675.1.2 switch=n enabled=y phases=2 Linecode=1P_UG_AL_1/0_Brenau_2

New Line.l(r:p1udm753-p1ulv4680) Units=km Length=0.0164982 bus1=p1udm753.1.2 bus2=p1ulv4680.1.2 switch=n enabled=y phases=2 Linecode=1P_UG_AL_1/0_Brenau_2

New Line.l(r:p1udm753-p1ulv8416) Units=km Length=0.0369336 bus1=p1udm753.1.2 bus2=p1ulv8416.1.2 switch=n enabled=y phases=2 Linecode=1P_UG_AL_1/0_Brenau_2

New Line.l(r:p1udm755-p1ulv6672) Units=km Length=0.0217421 bus1=p1udm755.1.2 bus2=p1ulv6672.1.2 switch=n enabled=y phases=2 Linecode=1P_UG_AL_1/0_Brenau_2

New Line.l(r:p1udm753-p1udm755) Units=km Length=0.03544510000000001 bus1=p1udm753.1.2 bus2=p1udm755.1.2 switch=n enabled=y phases=2 Linecode=1P_UG_AL_1/0_Brenau_2

New Line.l(r:p1udm753-p1udt204lv) Units=km Length=0.0060289 bus1=p1udt204lv.1.2 bus2=p1udm753.1.2 switch=n enabled=y phases=2 Linecode=1P_UG_AL_4/0_Sweetbriar_2

New Line.l(r:p1udm754-p1ulv5690) Units=km Length=0.025169 bus1=p1udm754.1.2 bus2=p1ulv5690.1.2 switch=n enabled=y phases=2 Linecode=1P_UG_AL_2/0_Converse_2

New Line.l(r:p1udm752-p1ulv213) Units=km Length=0.0306572 bus1=p1udm752.1.2 bus2=p1ulv213.1.2 switch=n enabled=y phases=2 Linecode=1P_UG_AL_1/0_Brenau_2

New Line.l(r:p1udm757-p1ulv7188) Units=km Length=0.0309475 bus1=p1udm757.1.2 bus2=p1ulv7188.1.2 switch=n enabled=y phases=2 Linecode=1P_UG_AL_1/0_Brenau_2

New Line.l(r:p1udm752-p1udm757) Units=km Length=0.025381500000000005 bus1=p1udm752.1.2 bus2=p1udm757.1.2 switch=n enabled=y phases=2 Linecode=1P_UG_AL_1/0_Brenau_2

New Line.l(r:p1udm752-p1udm754) Units=km Length=0.0116562 bus1=p1udm754.1.2 bus2=p1udm752.1.2 switch=n enabled=y phases=2 Linecode=1P_UG_AL_2/0_Converse_2

New Line.l(r:p1udm754-p1udt204lv) Units=km Length=0.005866380000000001 bus1=p1udt204lv.1.2 bus2=p1udm754.1.2 switch=n enabled=y phases=2 Linecode=1P_UG_AL_4/0_Sweetbriar_2

New Line.l(r:p1udt205lv-p1ulv214) Units=km Length=0.0419006 bus1=p1udt205lv.1.2 bus2=p1ulv214.1.2 switch=n enabled=y phases=2 Linecode=1P_UG_AL_1/0_Brenau_2

New Line.l(r:p1udm760-p1ulv10513) Units=km Length=0.0194666 bus1=p1udm760.1.2 bus2=p1ulv10513.1.2 switch=n enabled=y phases=2 Linecode=1P_UG_AL_1/0_Brenau_2

New Line.l(r:p1udm760-p1udt205lv) Units=km Length=0.0193326 bus1=p1udt205lv.1.2 bus2=p1udm760.1.2 switch=n enabled=y phases=2 Linecode=1P_UG_AL_1/0_Brenau_2

New Line.l(r:p1udt206lv-p1ulv7681) Units=km Length=0.0264312 bus1=p1udt206lv.1.2 bus2=p1ulv7681.1.2 switch=n enabled=y phases=2 Linecode=1P_UG_AL_2/0_Converse_2

New Line.l(r:p1udm761-p1ulv215) Units=km Length=0.023112000000000004 bus1=p1udm761.1.2 bus2=p1ulv215.1.2 switch=n enabled=y phases=2 Linecode=1P_UG_AL_1/0_Brenau_2

New Line.l(r:p1udm761-p1ulv12411) Units=km Length=0.0395304 bus1=p1udm761.1.2 bus2=p1ulv12411.1.2 switch=n enabled=y phases=2 Linecode=1P_UG_AL_1/0_Brenau_2

New Line.l(r:p1udm761-p1udt206lv) Units=km Length=0.0185425 bus1=p1udt206lv.1.2 bus2=p1udm761.1.2 switch=n enabled=y phases=2 Linecode=1P_UG_AL_2/0_Converse_2

New Line.l(r:p1udm762-p1ulv5914) Units=km Length=0.0350969 bus1=p1udm762.1.2 bus2=p1ulv5914.1.2 switch=n enabled=y phases=2 Linecode=1P_UG_AL_1/0_Brenau_2

New Line.l(r:p1udm764-p1ulv8947) Units=km Length=0.0259159 bus1=p1udm764.1.2 bus2=p1ulv8947.1.2 switch=n enabled=y phases=2 Linecode=1P_UG_AL_1/0_Brenau_2

New Line.l(r:p1udm762-p1udm764) Units=km Length=0.0176262 bus1=p1udm762.1.2 bus2=p1udm764.1.2 switch=n enabled=y phases=2 Linecode=1P_UG_AL_1/0_Brenau_2

New Line.l(r:p1udm762-p1udt206lv) Units=km Length=0.0176262 bus1=p1udt206lv.1.2 bus2=p1udm762.1.2 switch=n enabled=y phases=2 Linecode=1P_UG_AL_1/0_Brenau_2

New Line.l(r:p1udm771-p1ulv217) Units=km Length=0.0109507 bus1=p1udm771.1.2 bus2=p1ulv217.1.2 switch=n enabled=y phases=2 Linecode=1P_UG_AL_1/0_Brenau_2

New Line.l(r:p1udm771-p1ulv11600) Units=km Length=0.0189735 bus1=p1udm771.1.2 bus2=p1ulv11600.1.2 switch=n enabled=y phases=2 Linecode=1P_UG_AL_1/0_Brenau_2

New Line.l(r:p1udm771-p1udt208lv) Units=km Length=0.009768650000000002 bus1=p1udt208lv.1.2 bus2=p1udm771.1.2 switch=n enabled=y phases=2 Linecode=1P_UG_AL_2/0_Converse_2

New Line.l(r:p1udm772-p1ulv4681) Units=km Length=0.0193193 bus1=p1udm772.1.2 bus2=p1ulv4681.1.2 switch=n enabled=y phases=2 Linecode=1P_UG_AL_1/0_Brenau_2

New Line.l(r:p1udm772-p1ulv10271) Units=km Length=0.0123686 bus1=p1udm772.1.2 bus2=p1ulv10271.1.2 switch=n enabled=y phases=2 Linecode=1P_UG_AL_2/0_Converse_2

New Line.l(r:p1udm772-p1udt208lv) Units=km Length=0.00977553 bus1=p1udt208lv.1.2 bus2=p1udm772.1.2 switch=n enabled=y phases=2 Linecode=1P_UG_AL_4/0_Sweetbriar_2

New Line.l(r:p1udt209lv-p1ulv218) Units=km Length=0.0129918 bus1=p1udt209lv.1.2 bus2=p1ulv218.1.2 switch=n enabled=y phases=2 Linecode=1P_UG_AL_1/0_Brenau_2

New Line.l(r:p1udt209lv-p1ulv762) Units=km Length=0.0134297 bus1=p1udt209lv.1.2 bus2=p1ulv762.1.2 switch=n enabled=y phases=2 Linecode=1P_UG_AL_1/0_Brenau_2

New Line.l(r:p1udt210lv-p1ulv9704) Units=km Length=0.020877600000000003 bus1=p1udt210lv.1.2 bus2=p1ulv9704.1.2 switch=n enabled=y phases=2 Linecode=1P_UG_AL_1/0_Brenau_2

New Line.l(r:p1udm778-p1ulv542) Units=km Length=0.011431500000000002 bus1=p1udm778.1.2 bus2=p1ulv542.1.2 switch=n enabled=y phases=2 Linecode=1P_UG_AL_1/0_Brenau_2

New Line.l(r:p1udm778-p1ulv10041) Units=km Length=0.0157694 bus1=p1udm778.1.2 bus2=p1ulv10041.1.2 switch=n enabled=y phases=2 Linecode=1P_UG_AL_1/0_Brenau_2

New Line.l(r:p1udm779-p1ulv3364) Units=km Length=0.0160892 bus1=p1udm779.1.2 bus2=p1ulv3364.1.2 switch=n enabled=y phases=2 Linecode=1P_UG_AL_1/0_Brenau_2

New Line.l(r:p1udm779-p1ulv9937) Units=km Length=0.0172809 bus1=p1udm779.1.2 bus2=p1ulv9937.1.2 switch=n enabled=y phases=2 Linecode=1P_UG_AL_1/0_Brenau_2

New Line.l(r:p1udm778-p1udm779) Units=km Length=0.0159625 bus1=p1udm778.1.2 bus2=p1udm779.1.2 switch=n enabled=y phases=2 Linecode=1P_UG_AL_1/0_Brenau_2

New Line.l(r:p1udm778-p1udt210lv) Units=km Length=0.0166706 bus1=p1udt210lv.1.2 bus2=p1udm778.1.2 switch=n enabled=y phases=2 Linecode=1P_UG_AL_4/0_Sweetbriar_2

New Line.l(r:p1udm781-p1ulv5375) Units=km Length=0.00929043 bus1=p1udm781.1.2 bus2=p1ulv5375.1.2 switch=n enabled=y phases=2 Linecode=1P_UG_AL_1/0_Brenau_2

New Line.l(r:p1udm777-p1ulv219) Units=km Length=0.014408500000000001 bus1=p1udm777.1.2 bus2=p1ulv219.1.2 switch=n enabled=y phases=2 Linecode=1P_UG_AL_1/0_Brenau_2

New Line.l(r:p1udm780-p1ulv4110) Units=km Length=0.0100361 bus1=p1udm780.1.2 bus2=p1ulv4110.1.2 switch=n enabled=y phases=2 Linecode=1P_UG_AL_1/0_Brenau_2

New Line.l(r:p1udm777-p1udm780) Units=km Length=0.0420133 bus1=p1udm777.1.2 bus2=p1udm780.1.2 switch=n enabled=y phases=2 Linecode=1P_UG_AL_1/0_Brenau_2

New Line.l(r:p1udm777-p1udm781) Units=km Length=0.0163104 bus1=p1udm781.1.2 bus2=p1udm777.1.2 switch=n enabled=y phases=2 Linecode=1P_UG_AL_2/0_Converse_2

New Line.l(r:p1udm781-p1udt210lv) Units=km Length=0.00833562 bus1=p1udt210lv.1.2 bus2=p1udm781.1.2 switch=n enabled=y phases=2 Linecode=1P_UG_AL_4/0_Sweetbriar_2

New Line.l(r:p1udt211lv-p1ulv220) Units=km Length=0.031448 bus1=p1udt211lv.1.2 bus2=p1ulv220.1.2 switch=n enabled=y phases=2 Linecode=1P_OH_AL_4/0_Zuzara_2

New Line.l(r:p1udm786-p1ulv5607) Units=km Length=0.015597700000000003 bus1=p1udm786.1.2 bus2=p1ulv5607.1.2 switch=n enabled=y phases=2 Linecode=1P_OH_AL_2/0_Rucina_2

New Line.l(r:p1udm786-p1udt211lv) Units=km Length=0.00988067 bus1=p1udt211lv.1.2 bus2=p1udm786.1.2 switch=n enabled=y phases=2 Linecode=1P_OH_AL_2/0_Rucina_2

New Line.l(r:p1udt212lv-p1ulv1362) Units=km Length=0.04414610000000001 bus1=p1udt212lv.1.2 bus2=p1ulv1362.1.2 switch=n enabled=y phases=2 Linecode=1P_UG_AL_1/0_Brenau_2

New Line.l(r:p1udt212lv-p1ulv2503) Units=km Length=0.0200998 bus1=p1udt212lv.1.2 bus2=p1ulv2503.1.2 switch=n enabled=y phases=2 Linecode=1P_UG_AL_1/0_Brenau_2

New Line.l(r:p1udt212lv-p1ulv6556) Units=km Length=0.0174344 bus1=p1udt212lv.1.2 bus2=p1ulv6556.1.2 switch=n enabled=y phases=2 Linecode=1P_UG_AL_1/0_Brenau_2

New Line.l(r:p1udt212lv-p1ulv11357) Units=km Length=0.0156975 bus1=p1udt212lv.1.2 bus2=p1ulv11357.1.2 switch=n enabled=y phases=2 Linecode=1P_UG_AL_1/0_Brenau_2

New Line.l(r:p1udm787-p1ulv221) Units=km Length=0.0319232 bus1=p1udm787.1.2 bus2=p1ulv221.1.2 switch=n enabled=y phases=2 Linecode=1P_UG_AL_1/0_Brenau_2

New Line.l(r:p1udm787-p1udt212lv) Units=km Length=0.00728393 bus1=p1udt212lv.1.2 bus2=p1udm787.1.2 switch=n enabled=y phases=2 Linecode=1P_UG_AL_1/0_Brenau_2

New Line.l(r:p1udm793-p1ulv224) Units=km Length=0.019159400000000004 bus1=p1udm793.1.2 bus2=p1ulv224.1.2 switch=n enabled=y phases=2 Linecode=1P_UG_AL_1/0_Brenau_2

New Line.l(r:p1udm793-p1udt214lv) Units=km Length=0.0398313 bus1=p1udt214lv.1.2 bus2=p1udm793.1.2 switch=n enabled=y phases=2 Linecode=1P_UG_AL_1/0_Brenau_2

New Line.l(r:p1udm794-p1ulv11239) Units=km Length=0.012976 bus1=p1udm794.1.2 bus2=p1ulv11239.1.2 switch=n enabled=y phases=2 Linecode=1P_UG_AL_1/0_Brenau_2

New Line.l(r:p1udm794-p1udt214lv) Units=km Length=0.0298682 bus1=p1udt214lv.1.2 bus2=p1udm794.1.2 switch=n enabled=y phases=2 Linecode=1P_UG_AL_1/0_Brenau_2

New Line.l(r:p1udm1019-p1ulv5777) Units=km Length=0.0150591 bus1=p1udm1019.1.2 bus2=p1ulv5777.1.2 switch=n enabled=y phases=2 Linecode=1P_UG_AL_2/0_Converse_2

New Line.l(r:p1udm1018-p1ulv298) Units=km Length=0.0124244 bus1=p1udm1018.1.2 bus2=p1ulv298.1.2 switch=n enabled=y phases=2 Linecode=1P_UG_AL_1/0_Brenau_2

New Line.l(r:p1udm1018-p1udm1019) Units=km Length=0.00978001 bus1=p1udm1019.1.2 bus2=p1udm1018.1.2 switch=n enabled=y phases=2 Linecode=1P_UG_AL_1/0_Brenau_2

New Line.l(r:p1udm1019-p1udt282lv) Units=km Length=0.00978 bus1=p1udt282lv.1.2 bus2=p1udm1019.1.2 switch=n enabled=y phases=2 Linecode=1P_UG_AL_4/0_Sweetbriar_2

New Line.l(r:p1udm1020-p1ulv9668) Units=km Length=0.0112189 bus1=p1udm1020.1.2 bus2=p1ulv9668.1.2 switch=n enabled=y phases=2 Linecode=1P_UG_AL_1/0_Brenau_2

New Line.l(r:p1udm1020-p1udt282lv) Units=km Length=0.02935 bus1=p1udt282lv.1.2 bus2=p1udm1020.1.2 switch=n enabled=y phases=2 Linecode=1P_UG_AL_1/0_Brenau_2

New Line.l(r:p1udt283lv-p1ulv299) Units=km Length=0.0174003 bus1=p1udt283lv.1.2 bus2=p1ulv299.1.2 switch=n enabled=y phases=2 Linecode=1P_UG_AL_2/0_Converse_2

New Line.l(r:p1udm1022-p1ulv1685) Units=km Length=0.0146552 bus1=p1udm1022.1.2 bus2=p1ulv1685.1.2 switch=n enabled=y phases=2 Linecode=1P_UG_AL_1/0_Brenau_2

New Line.l(r:p1udm1022-p1ulv5338) Units=km Length=0.014660000000000001 bus1=p1udm1022.1.2 bus2=p1ulv5338.1.2 switch=n enabled=y phases=2 Linecode=1P_UG_AL_1/0_Brenau_2

New Line.l(r:p1udm1022-p1ulv5572) Units=km Length=0.018215100000000005 bus1=p1udm1022.1.2 bus2=p1ulv5572.1.2 switch=n enabled=y phases=2 Linecode=1P_UG_AL_1/0_Brenau_2

New Line.l(r:p1udm1022-p1udt283lv) Units=km Length=0.019982 bus1=p1udt283lv.1.2 bus2=p1udm1022.1.2 switch=n enabled=y phases=2 Linecode=1P_UG_AL_4/0_Sweetbriar_2

New Line.l(r:p1udm1025-p1ulv6783) Units=km Length=0.012867900000000002 bus1=p1udm1025.1.2 bus2=p1ulv6783.1.2 switch=n enabled=y phases=2 Linecode=1P_UG_AL_1/0_Brenau_2

New Line.l(r:p1udm1026-p1ulv11927) Units=km Length=0.0105425 bus1=p1udm1026.1.2 bus2=p1ulv11927.1.2 switch=n enabled=y phases=2 Linecode=1P_UG_AL_1/0_Brenau_2

New Line.l(r:p1udm1025-p1udm1026) Units=km Length=0.0398871 bus1=p1udm1025.1.2 bus2=p1udm1026.1.2 switch=n enabled=y phases=2 Linecode=1P_UG_AL_1/0_Brenau_2

New Line.l(r:p1udm1025-p1udt283lv) Units=km Length=0.00999085 bus1=p1udt283lv.1.2 bus2=p1udm1025.1.2 switch=n enabled=y phases=2 Linecode=1P_UG_AL_2/0_Converse_2

New Line.l(r:p1udt289lv-p1ulv307) Units=km Length=0.0315334 bus1=p1udt289lv.1.2 bus2=p1ulv307.1.2 switch=n enabled=y phases=2 Linecode=1P_OH_AL_4/0_Zuzara_2

New Line.l(r:p1udt289lv-p1ulv5246) Units=km Length=0.0219616 bus1=p1udt289lv.1.2 bus2=p1ulv5246.1.2 switch=n enabled=y phases=2 Linecode=1P_OH_AL_2/0_Rucina_2

New Line.l(r:p1udt289lv-p1ulv9426) Units=km Length=0.0226798 bus1=p1udt289lv.1.2 bus2=p1ulv9426.1.2 switch=n enabled=y phases=2 Linecode=1P_OH_AL_2/0_Rucina_2

New Line.l(r:p1udm1049-p1ulv8650) Units=km Length=0.0184526 bus1=p1udm1049.1.2 bus2=p1ulv8650.1.2 switch=n enabled=y phases=2 Linecode=1P_OH_AL_2/0_Rucina_2

New Line.l(r:p1udm1049-p1udt289lv) Units=km Length=0.0317317 bus1=p1udt289lv.1.2 bus2=p1udm1049.1.2 switch=n enabled=y phases=2 Linecode=1P_OH_AL_4/0_Zuzara_2

New Line.l(r:p1udm1051-p1ulv308) Units=km Length=0.0137699 bus1=p1udm1051.1.2 bus2=p1ulv308.1.2 switch=n enabled=y phases=2 Linecode=1P_OH_AL_2/0_Rucina_2

New Line.l(r:p1udm1051-p1udt290lv) Units=km Length=0.0157367 bus1=p1udt290lv.1.2 bus2=p1udm1051.1.2 switch=n enabled=y phases=2 Linecode=1P_OH_AL_2/0_Rucina_2

New Line.l(r:p1udm1052-p1ulv8268) Units=km Length=0.015002400000000003 bus1=p1udm1052.1.2 bus2=p1ulv8268.1.2 switch=n enabled=y phases=2 Linecode=1P_OH_AL_2/0_Rucina_2

New Line.l(r:p1udm1052-p1udt290lv) Units=km Length=0.018580700000000002 bus1=p1udt290lv.1.2 bus2=p1udm1052.1.2 switch=n enabled=y phases=2 Linecode=1P_OH_AL_2/0_Rucina_2

New Line.l(r:p1udt306lv-p1ulv8407) Units=km Length=0.015433 bus1=p1udt306lv.1.2 bus2=p1ulv8407.1.2 switch=n enabled=y phases=2 Linecode=1P_OH_AL_2/0_Rucina_2

New Line.l(r:p1udm1117-p1ulv3471) Units=km Length=0.0160258 bus1=p1udm1117.1.2 bus2=p1ulv3471.1.2 switch=n enabled=y phases=2 Linecode=1P_OH_AL_2/0_Rucina_2

New Line.l(r:p1udm1117-p1ulv11111) Units=km Length=0.00591405 bus1=p1udm1117.1.2 bus2=p1ulv11111.1.2 switch=n enabled=y phases=2 Linecode=1P_OH_AL_2/0_Rucina_2

New Line.l(r:p1udm1117-p1udt306lv) Units=km Length=0.0187812 bus1=p1udt306lv.1.2 bus2=p1udm1117.1.2 switch=n enabled=y phases=2 Linecode=1P_OH_AL_2/0_Rucina_2

New Line.l(r:p1udm1118-p1ulv6941) Units=km Length=0.0359309 bus1=p1udm1118.1.2 bus2=p1ulv6941.1.2 switch=n enabled=y phases=2 Linecode=1P_OH_AL_4/0_Zuzara_2

New Line.l(r:p1udm1116-p1ulv326) Units=km Length=0.0216206 bus1=p1udm1116.1.2 bus2=p1ulv326.1.2 switch=n enabled=y phases=2 Linecode=1P_OH_AL_2/0_Rucina_2

New Line.l(r:p1udm1116-p1udm1118) Units=km Length=0.0176302 bus1=p1udm1118.1.2 bus2=p1udm1116.1.2 switch=n enabled=y phases=2 Linecode=1P_OH_AL_2/0_Rucina_2

New Line.l(r:p1udm1118-p1udt306lv) Units=km Length=0.0246328 bus1=p1udt306lv.1.2 bus2=p1udm1118.1.2 switch=n enabled=y phases=2 Linecode=1P_OH_AL_2/0_Rucina_2

New Line.l(r:p1udm1124-p1ulv328) Units=km Length=0.0264351 bus1=p1udm1124.1.2 bus2=p1ulv328.1.2 switch=n enabled=y phases=2 Linecode=1P_OH_AL_2/0_Rucina_2

New Line.l(r:p1udm1124-p1udt308lv) Units=km Length=0.013298 bus1=p1udt308lv.1.2 bus2=p1udm1124.1.2 switch=n enabled=y phases=2 Linecode=1P_OH_AL_2/0_Rucina_2

New Line.l(r:p1udm1125-p1ulv4793) Units=km Length=0.0144519 bus1=p1udm1125.1.2 bus2=p1ulv4793.1.2 switch=n enabled=y phases=2 Linecode=1P_OH_AL_2/0_Rucina_2

New Line.l(r:p1udm1125-p1udt308lv) Units=km Length=0.0261694 bus1=p1udt308lv.1.2 bus2=p1udm1125.1.2 switch=n enabled=y phases=2 Linecode=1P_OH_AL_2/0_Rucina_2

New Line.l(r:p1udt311lv-p1ulv2862) Units=km Length=0.00899749 bus1=p1udt311lv.1.2 bus2=p1ulv2862.1.2 switch=n enabled=y phases=2 Linecode=1P_UG_AL_1/0_Brenau_2

New Line.l(r:p1udm1143-p1ulv10664) Units=km Length=0.0362609 bus1=p1udm1143.1.2 bus2=p1ulv10664.1.2 switch=n enabled=y phases=2 Linecode=1P_UG_AL_1/0_Brenau_2

New Line.l(r:p1udm1138-p1ulv332) Units=km Length=0.007058990000000001 bus1=p1udm1138.1.2 bus2=p1ulv332.1.2 switch=n enabled=y phases=2 Linecode=1P_UG_AL_1/0_Brenau_2

New Line.l(r:p1udm1141-p1ulv4927) Units=km Length=0.0101872 bus1=p1udm1141.1.2 bus2=p1ulv4927.1.2 switch=n enabled=y phases=2 Linecode=1P_UG_AL_1/0_Brenau_2

New Line.l(r:p1udm1138-p1udm1141) Units=km Length=0.0175392 bus1=p1udm1138.1.2 bus2=p1udm1141.1.2 switch=n enabled=y phases=2 Linecode=1P_UG_AL_1/0_Brenau_2

New Line.l(r:p1udm1138-p1udm1143) Units=km Length=0.0175308 bus1=p1udm1143.1.2 bus2=p1udm1138.1.2 switch=n enabled=y phases=2 Linecode=1P_UG_AL_2/0_Converse_2

New Line.l(r:p1udm1143-p1udt311lv) Units=km Length=0.008776500000000001 bus1=p1udt311lv.1.2 bus2=p1udm1143.1.2 switch=n enabled=y phases=2 Linecode=1P_UG_AL_4/0_Sweetbriar_2

New Line.l(r:p1udm1144-p1ulv10776) Units=km Length=0.010129 bus1=p1udm1144.1.2 bus2=p1ulv10776.1.2 switch=n enabled=y phases=2 Linecode=1P_UG_AL_1/0_Brenau_2

New Line.l(r:p1udm1142-p1ulv5366) Units=km Length=0.010815 bus1=p1udm1142.1.2 bus2=p1ulv5366.1.2 switch=n enabled=y phases=2 Linecode=1P_UG_AL_1/0_Brenau_2

New Line.l(r:p1udm1139-p1ulv1859) Units=km Length=0.0121558 bus1=p1udm1139.1.2 bus2=p1ulv1859.1.2 switch=n enabled=y phases=2 Linecode=1P_UG_AL_1/0_Brenau_2

New Line.l(r:p1udm1139-p1udm1142) Units=km Length=0.00812682 bus1=p1udm1142.1.2 bus2=p1udm1139.1.2 switch=n enabled=y phases=2 Linecode=1P_UG_AL_1/0_Brenau_2

New Line.l(r:p1udm1142-p1udm1144) Units=km Length=0.00876809 bus1=p1udm1144.1.2 bus2=p1udm1142.1.2 switch=n enabled=y phases=2 Linecode=1P_UG_AL_4/0_Sweetbriar_2

New Line.l(r:p1udm1144-p1udt311lv) Units=km Length=0.0175308 bus1=p1udt311lv.1.2 bus2=p1udm1144.1.2 switch=n enabled=y phases=2 Linecode=1P_UG_AL_4/0_Sweetbriar_2

New Line.l(r:p1udt312lv-p1ulv4094) Units=km Length=0.00754899 bus1=p1udt312lv.1.2 bus2=p1ulv4094.1.2 switch=n enabled=y phases=2 Linecode=1P_OH_AL_2/0_Rucina_2

New Line.l(r:p1udt312lv-p1ulv4800) Units=km Length=0.0110743 bus1=p1udt312lv.1.2 bus2=p1ulv4800.1.2 switch=n enabled=y phases=2 Linecode=1P_OH_AL_2/0_Rucina_2

New Line.l(r:p1udt312lv-p1ulv5030) Units=km Length=0.0142845 bus1=p1udt312lv.1.2 bus2=p1ulv5030.1.2 switch=n enabled=y phases=2 Linecode=1P_OH_AL_2/0_Rucina_2

New Line.l(r:p1udm1145-p1ulv333) Units=km Length=0.0092556 bus1=p1udm1145.1.2 bus2=p1ulv333.1.2 switch=n enabled=y phases=2 Linecode=1P_OH_AL_2/0_Rucina_2

New Line.l(r:p1udm1148-p1ulv4095) Units=km Length=0.015473 bus1=p1udm1148.1.2 bus2=p1ulv4095.1.2 switch=n enabled=y phases=2 Linecode=1P_OH_AL_2/0_Rucina_2

New Line.l(r:p1udm1145-p1udm1148) Units=km Length=0.052672800000000006 bus1=p1udm1145.1.2 bus2=p1udm1148.1.2 switch=n enabled=y phases=2 Linecode=1P_OH_AL_4/0_Zuzara_2

New Line.l(r:p1udm1145-p1udt312lv) Units=km Length=0.0358427 bus1=p1udt312lv.1.2 bus2=p1udm1145.1.2 switch=n enabled=y phases=2 Linecode=1P_OH_AL_4/0_Zuzara_2

New Line.l(r:p1udm1151-p1ulv6421) Units=km Length=0.014516500000000002 bus1=p1udm1151.1.2 bus2=p1ulv6421.1.2 switch=n enabled=y phases=2 Linecode=1P_OH_AL_2/0_Rucina_2

New Line.l(r:p1udm1146-p1ulv4093) Units=km Length=0.0136532 bus1=p1udm1146.1.2 bus2=p1ulv4093.1.2 switch=n enabled=y phases=2 Linecode=1P_OH_AL_2/0_Rucina_2

New Line.l(r:p1udm1146-p1ulv8946) Units=km Length=0.00806688 bus1=p1udm1146.1.2 bus2=p1ulv8946.1.2 switch=n enabled=y phases=2 Linecode=1P_OH_AL_2/0_Rucina_2

New Line.l(r:p1udm1146-p1udm1151) Units=km Length=0.017921400000000004 bus1=p1udm1151.1.2 bus2=p1udm1146.1.2 switch=n enabled=y phases=2 Linecode=1P_OH_AL_2/0_Rucina_2

New Line.l(r:p1udm1151-p1udt312lv) Units=km Length=0.017921400000000004 bus1=p1udt312lv.1.2 bus2=p1udm1151.1.2 switch=n enabled=y phases=2 Linecode=1P_OH_AL_2/0_Rucina_2

New Line.l(r:p1udt313lv-p1ulv334) Units=km Length=0.0158817 bus1=p1udt313lv.1.2 bus2=p1ulv334.1.2 switch=n enabled=y phases=2 Linecode=1P_OH_AL_2/0_Rucina_2

New Line.l(r:p1udm1154-p1ulv4930) Units=km Length=0.007757900000000001 bus1=p1udm1154.1.2 bus2=p1ulv4930.1.2 switch=n enabled=y phases=2 Linecode=1P_OH_AL_2/0_Rucina_2

New Line.l(r:p1udm1154-p1udt313lv) Units=km Length=0.034766 bus1=p1udt313lv.1.2 bus2=p1udm1154.1.2 switch=n enabled=y phases=2 Linecode=1P_OH_AL_4/0_Zuzara_2

New Line.l(r:p1udm1168-p1ulv339) Units=km Length=0.0209429 bus1=p1udm1168.1.2 bus2=p1ulv339.1.2 switch=n enabled=y phases=2 Linecode=1P_UG_AL_1/0_Brenau_2

New Line.l(r:p1udm1170-p1ulv8678) Units=km Length=0.0114574 bus1=p1udm1170.1.2 bus2=p1ulv8678.1.2 switch=n enabled=y phases=2 Linecode=1P_UG_AL_1/0_Brenau_2

New Line.l(r:p1udm1168-p1udm1170) Units=km Length=0.0113913 bus1=p1udm1168.1.2 bus2=p1udm1170.1.2 switch=n enabled=y phases=2 Linecode=1P_UG_AL_1/0_Brenau_2

New Line.l(r:p1udm1168-p1udt317lv) Units=km Length=0.0195095 bus1=p1udt317lv.1.2 bus2=p1udm1168.1.2 switch=n enabled=y phases=2 Linecode=1P_UG_AL_1/0_Brenau_2

New Line.l(r:p1udm1169-p1ulv1359) Units=km Length=0.0118933 bus1=p1udm1169.1.2 bus2=p1ulv1359.1.2 switch=n enabled=y phases=2 Linecode=1P_UG_AL_1/0_Brenau_2

New Line.l(r:p1udm1169-p1udt317lv) Units=km Length=0.0487799 bus1=p1udt317lv.1.2 bus2=p1udm1169.1.2 switch=n enabled=y phases=2 Linecode=1P_UG_AL_1/0_Brenau_2

New Line.l(r:p1udm1171-p1ulv340) Units=km Length=0.0153213 bus1=p1udm1171.1.2 bus2=p1ulv340.1.2 switch=n enabled=y phases=2 Linecode=1P_UG_AL_1/0_Brenau_2

New Line.l(r:p1udm1171-p1ulv6820) Units=km Length=0.010754200000000002 bus1=p1udm1171.1.2 bus2=p1ulv6820.1.2 switch=n enabled=y phases=2 Linecode=1P_UG_AL_1/0_Brenau_2

New Line.l(r:p1udm1173-p1ulv2748) Units=km Length=0.0125963 bus1=p1udm1173.1.2 bus2=p1ulv2748.1.2 switch=n enabled=y phases=2 Linecode=1P_UG_AL_1/0_Brenau_2

New Line.l(r:p1udm1171-p1udm1173) Units=km Length=0.0186018 bus1=p1udm1171.1.2 bus2=p1udm1173.1.2 switch=n enabled=y phases=2 Linecode=1P_UG_AL_1/0_Brenau_2

New Line.l(r:p1udm1171-p1udt318lv) Units=km Length=0.00929874 bus1=p1udt318lv.1.2 bus2=p1udm1171.1.2 switch=n enabled=y phases=2 Linecode=1P_UG_AL_4/0_Sweetbriar_2

New Line.l(r:p1udm1175-p1ulv9591) Units=km Length=0.0125581 bus1=p1udm1175.1.2 bus2=p1ulv9591.1.2 switch=n enabled=y phases=2 Linecode=1P_UG_AL_1/0_Brenau_2

New Line.l(r:p1udm1172-p1ulv1113) Units=km Length=0.00938102 bus1=p1udm1172.1.2 bus2=p1ulv1113.1.2 switch=n enabled=y phases=2 Linecode=1P_UG_AL_1/0_Brenau_2

New Line.l(r:p1udm1172-p1udm1175) Units=km Length=0.009722920000000001 bus1=p1udm1175.1.2 bus2=p1udm1172.1.2 switch=n enabled=y phases=2 Linecode=1P_UG_AL_1/0_Brenau_2

New Line.l(r:p1udm1175-p1udt318lv) Units=km Length=0.0194548 bus1=p1udt318lv.1.2 bus2=p1udm1175.1.2 switch=n enabled=y phases=2 Linecode=1P_UG_AL_2/0_Converse_2

New Line.l(r:p1udm1178-p1ulv3228) Units=km Length=0.00912586 bus1=p1udm1178.1.2 bus2=p1ulv3228.1.2 switch=n enabled=y phases=2 Linecode=1P_UG_AL_1/0_Brenau_2

New Line.l(r:p1udm1177-p1ulv342) Units=km Length=0.00873236 bus1=p1udm1177.1.2 bus2=p1ulv342.1.2 switch=n enabled=y phases=2 Linecode=1P_UG_AL_1/0_Brenau_2

New Line.l(r:p1udm1177-p1ulv12181) Units=km Length=0.0194292 bus1=p1udm1177.1.2 bus2=p1ulv12181.1.2 switch=n enabled=y phases=2 Linecode=1P_UG_AL_1/0_Brenau_2

New Line.l(r:p1udm1176-p1ulv341) Units=km Length=0.0187935 bus1=p1udm1176.1.2 bus2=p1ulv341.1.2 switch=n enabled=y phases=2 Linecode=1P_UG_AL_1/0_Brenau_2

New Line.l(r:p1udm1176-p1udm1177) Units=km Length=0.0183474 bus1=p1udm1177.1.2 bus2=p1udm1176.1.2 switch=n enabled=y phases=2 Linecode=1P_UG_AL_1/0_Brenau_2

New Line.l(r:p1udm1177-p1udm1178) Units=km Length=0.00999092 bus1=p1udm1178.1.2 bus2=p1udm1177.1.2 switch=n enabled=y phases=2 Linecode=1P_UG_AL_4/0_Sweetbriar_2

New Line.l(r:p1udm1178-p1udt319lv) Units=km Length=0.0099864 bus1=p1udt319lv.1.2 bus2=p1udm1178.1.2 switch=n enabled=y phases=2 Linecode=1P_UG_AL_4/0_Sweetbriar_2

New Line.l(r:p1udm1179-p1ulv5039) Units=km Length=0.0188367 bus1=p1udm1179.1.2 bus2=p1ulv5039.1.2 switch=n enabled=y phases=2 Linecode=1P_UG_AL_1/0_Brenau_2

New Line.l(r:p1udm1179-p1ulv11727) Units=km Length=0.0116728 bus1=p1udm1179.1.2 bus2=p1ulv11727.1.2 switch=n enabled=y phases=2 Linecode=1P_UG_AL_1/0_Brenau_2

New Line.l(r:p1udm1181-p1ulv9938) Units=km Length=0.019529 bus1=p1udm1181.1.2 bus2=p1ulv9938.1.2 switch=n enabled=y phases=2 Linecode=1P_UG_AL_1/0_Brenau_2

New Line.l(r:p1udm1180-p1ulv5694) Units=km Length=0.00945453 bus1=p1udm1180.1.2 bus2=p1ulv5694.1.2 switch=n enabled=y phases=2 Linecode=1P_UG_AL_1/0_Brenau_2

New Line.l(r:p1udm1180-p1udm1181) Units=km Length=0.0159255 bus1=p1udm1181.1.2 bus2=p1udm1180.1.2 switch=n enabled=y phases=2 Linecode=1P_UG_AL_1/0_Brenau_2

New Line.l(r:p1udm1179-p1udm1181) Units=km Length=0.0170034 bus1=p1udm1179.1.2 bus2=p1udm1181.1.2 switch=n enabled=y phases=2 Linecode=1P_UG_AL_1/0_Brenau_2

New Line.l(r:p1udm1179-p1udt319lv) Units=km Length=0.00940923 bus1=p1udt319lv.1.2 bus2=p1udm1179.1.2 switch=n enabled=y phases=2 Linecode=1P_UG_AL_4/0_Sweetbriar_2

New Line.l(r:p1udt320lv-p1ulv882) Units=km Length=0.0367707 bus1=p1udt320lv.1.2 bus2=p1ulv882.1.2 switch=n enabled=y phases=2 Linecode=1P_OH_AL_4/0_Zuzara_2

New Line.l(r:p1udm1184-p1ulv343) Units=km Length=0.0198535 bus1=p1udm1184.1.2 bus2=p1ulv343.1.2 switch=n enabled=y phases=2 Linecode=1P_OH_AL_2/0_Rucina_2

New Line.l(r:p1udm1184-p1ulv10783) Units=km Length=0.0288317 bus1=p1udm1184.1.2 bus2=p1ulv10783.1.2 switch=n enabled=y phases=2 Linecode=1P_OH_AL_4/0_Zuzara_2

New Line.l(r:p1udm1184-p1udt320lv) Units=km Length=0.0191249 bus1=p1udt320lv.1.2 bus2=p1udm1184.1.2 switch=n enabled=y phases=2 Linecode=1P_OH_AL_2/0_Rucina_2

New Line.l(r:p1udm1187-p1ulv11730) Units=km Length=0.023361 bus1=p1udm1187.1.2 bus2=p1ulv11730.1.2 switch=n enabled=y phases=2 Linecode=1P_OH_AL_2/0_Rucina_2

New Line.l(r:p1udm1187-p1udt320lv) Units=km Length=0.0382485 bus1=p1udt320lv.1.2 bus2=p1udm1187.1.2 switch=n enabled=y phases=2 Linecode=1P_OH_AL_4/0_Zuzara_2

New Line.l(r:p1udm1188-p1ulv344) Units=km Length=0.0113427 bus1=p1udm1188.1.2 bus2=p1ulv344.1.2 switch=n enabled=y phases=2 Linecode=1P_UG_AL_1/0_Brenau_2

New Line.l(r:p1udm1188-p1ulv2130) Units=km Length=0.0189505 bus1=p1udm1188.1.2 bus2=p1ulv2130.1.2 switch=n enabled=y phases=2 Linecode=1P_UG_AL_1/0_Brenau_2

New Line.l(r:p1udm1188-p1udt321lv) Units=km Length=0.019899200000000002 bus1=p1udt321lv.1.2 bus2=p1udm1188.1.2 switch=n enabled=y phases=2 Linecode=1P_UG_AL_2/0_Converse_2

New Line.l(r:p1udm1189-p1ulv769) Units=km Length=0.0178126 bus1=p1udm1189.1.2 bus2=p1ulv769.1.2 switch=n enabled=y phases=2 Linecode=1P_UG_AL_1/0_Brenau_2

New Line.l(r:p1udm1189-p1ulv10672) Units=km Length=0.0182182 bus1=p1udm1189.1.2 bus2=p1ulv10672.1.2 switch=n enabled=y phases=2 Linecode=1P_UG_AL_1/0_Brenau_2

New Line.l(r:p1udm1189-p1ulv12421) Units=km Length=0.011102800000000001 bus1=p1udm1189.1.2 bus2=p1ulv12421.1.2 switch=n enabled=y phases=2 Linecode=1P_UG_AL_1/0_Brenau_2

New Line.l(r:p1udm1189-p1udt321lv) Units=km Length=0.00995322 bus1=p1udt321lv.1.2 bus2=p1udm1189.1.2 switch=n enabled=y phases=2 Linecode=1P_UG_AL_4/0_Sweetbriar_2

New Line.l(r:p1udm1198-p1ulv346) Units=km Length=0.0149336 bus1=p1udm1198.1.2 bus2=p1ulv346.1.2 switch=n enabled=y phases=2 Linecode=1P_OH_AL_2/0_Rucina_2

New Line.l(r:p1udm1198-p1ulv2136) Units=km Length=0.0166109 bus1=p1udm1198.1.2 bus2=p1ulv2136.1.2 switch=n enabled=y phases=2 Linecode=1P_OH_AL_2/0_Rucina_2

New Line.l(r:p1udm1198-p1udt323lv) Units=km Length=0.0141402 bus1=p1udt323lv.1.2 bus2=p1udm1198.1.2 switch=n enabled=y phases=2 Linecode=1P_OH_AL_2/0_Rucina_2

New Line.l(r:p1udm1200-p1ulv2514) Units=km Length=0.0132901 bus1=p1udm1200.1.2 bus2=p1ulv2514.1.2 switch=n enabled=y phases=2 Linecode=1P_OH_AL_2/0_Rucina_2

New Line.l(r:p1udm1200-p1udt323lv) Units=km Length=0.0157345 bus1=p1udt323lv.1.2 bus2=p1udm1200.1.2 switch=n enabled=y phases=2 Linecode=1P_OH_AL_2/0_Rucina_2

New Line.l(r:p1udm1201-p1ulv347) Units=km Length=0.0218306 bus1=p1udm1201.1.2 bus2=p1ulv347.1.2 switch=n enabled=y phases=2 Linecode=1P_OH_AL_2/0_Rucina_2

New Line.l(r:p1udm1201-p1ulv12314) Units=km Length=0.0198237 bus1=p1udm1201.1.2 bus2=p1ulv12314.1.2 switch=n enabled=y phases=2 Linecode=1P_OH_AL_2/0_Rucina_2

New Line.l(r:p1udm1203-p1ulv3493) Units=km Length=0.0188035 bus1=p1udm1203.1.2 bus2=p1ulv3493.1.2 switch=n enabled=y phases=2 Linecode=1P_OH_AL_2/0_Rucina_2

New Line.l(r:p1udm1203-p1ulv5149) Units=km Length=0.0151349 bus1=p1udm1203.1.2 bus2=p1ulv5149.1.2 switch=n enabled=y phases=2 Linecode=1P_OH_AL_2/0_Rucina_2

New Line.l(r:p1udm1201-p1udm1203) Units=km Length=0.0161157 bus1=p1udm1201.1.2 bus2=p1udm1203.1.2 switch=n enabled=y phases=2 Linecode=1P_OH_AL_2/0_Rucina_2

New Line.l(r:p1udm1201-p1udt324lv) Units=km Length=0.023009800000000004 bus1=p1udt324lv.1.2 bus2=p1udm1201.1.2 switch=n enabled=y phases=2 Linecode=1P_OH_AL_2/0_Rucina_2

New Line.l(r:p1udm1202-p1ulv2388) Units=km Length=0.0144637 bus1=p1udm1202.1.2 bus2=p1ulv2388.1.2 switch=n enabled=y phases=2 Linecode=1P_OH_AL_2/0_Rucina_2

New Line.l(r:p1udm1202-p1ulv9098) Units=km Length=0.0219242 bus1=p1udm1202.1.2 bus2=p1ulv9098.1.2 switch=n enabled=y phases=2 Linecode=1P_OH_AL_2/0_Rucina_2

New Line.l(r:p1udm1206-p1ulv11488) Units=km Length=0.018517200000000004 bus1=p1udm1206.1.2 bus2=p1ulv11488.1.2 switch=n enabled=y phases=2 Linecode=1P_OH_AL_2/0_Rucina_2

New Line.l(r:p1udm1202-p1udm1206) Units=km Length=0.0330587 bus1=p1udm1202.1.2 bus2=p1udm1206.1.2 switch=n enabled=y phases=2 Linecode=1P_OH_AL_4/0_Zuzara_2

New Line.l(r:p1udm1202-p1udt324lv) Units=km Length=0.0369535 bus1=p1udt324lv.1.2 bus2=p1udm1202.1.2 switch=n enabled=y phases=2 Linecode=1P_OH_AL_4/0_Zuzara_2

New Line.l(r:p1udt387lv-p1ulv415) Units=km Length=0.0133848 bus1=p1udt387lv.1.2 bus2=p1ulv415.1.2 switch=n enabled=y phases=2 Linecode=1P_OH_AL_2/0_Rucina_2

New Line.l(r:p1udt387lv-p1ulv3940) Units=km Length=0.0129147 bus1=p1udt387lv.1.2 bus2=p1ulv3940.1.2 switch=n enabled=y phases=2 Linecode=1P_OH_AL_2/0_Rucina_2

New Line.l(r:p1udm1416-p1ulv5569) Units=km Length=0.014004100000000002 bus1=p1udm1416.1.2 bus2=p1ulv5569.1.2 switch=n enabled=y phases=2 Linecode=1P_OH_AL_2/0_Rucina_2

New Line.l(r:p1udm1416-p1udt387lv) Units=km Length=0.019651900000000003 bus1=p1udt387lv.1.2 bus2=p1udm1416.1.2 switch=n enabled=y phases=2 Linecode=1P_OH_AL_2/0_Rucina_2

New Line.l(r:p1udt388lv-p1ulv416) Units=km Length=0.0136548 bus1=p1udt388lv.1.2 bus2=p1ulv416.1.2 switch=n enabled=y phases=2 Linecode=1P_UG_AL_1/0_Brenau_2

New Line.l(r:p1udt388lv-p1ulv4188) Units=km Length=0.015116 bus1=p1udt388lv.1.2 bus2=p1ulv4188.1.2 switch=n enabled=y phases=2 Linecode=1P_UG_AL_1/0_Brenau_2

New Line.l(r:p1udt392lv-p1ulv3695) Units=km Length=0.0180423 bus1=p1udt392lv.1.2 bus2=p1ulv3695.1.2 switch=n enabled=y phases=2 Linecode=1P_OH_AL_2/0_Rucina_2

New Line.l(r:p1udt392lv-p1ulv8777) Units=km Length=0.0130168 bus1=p1udt392lv.1.2 bus2=p1ulv8777.1.2 switch=n enabled=y phases=2 Linecode=1P_OH_AL_2/0_Rucina_2

New Line.l(r:p1udm1430-p1ulv421) Units=km Length=0.0186672 bus1=p1udm1430.1.2 bus2=p1ulv421.1.2 switch=n enabled=y phases=2 Linecode=1P_OH_AL_2/0_Rucina_2

New Line.l(r:p1udm1430-p1ulv1195) Units=km Length=0.0133078 bus1=p1udm1430.1.2 bus2=p1ulv1195.1.2 switch=n enabled=y phases=2 Linecode=1P_OH_AL_2/0_Rucina_2

New Line.l(r:p1udm1430-p1udt392lv) Units=km Length=0.0198709 bus1=p1udt392lv.1.2 bus2=p1udm1430.1.2 switch=n enabled=y phases=2 Linecode=1P_OH_AL_2/0_Rucina_2

New Line.l(r:p1udm1432-p1ulv3694) Units=km Length=0.0128822 bus1=p1udm1432.1.2 bus2=p1ulv3694.1.2 switch=n enabled=y phases=2 Linecode=1P_OH_AL_2/0_Rucina_2

New Line.l(r:p1udm1432-p1ulv11088) Units=km Length=0.020152 bus1=p1udm1432.1.2 bus2=p1ulv11088.1.2 switch=n enabled=y phases=2 Linecode=1P_OH_AL_2/0_Rucina_2

New Line.l(r:p1udm1432-p1udt392lv) Units=km Length=0.019879 bus1=p1udt392lv.1.2 bus2=p1udm1432.1.2 switch=n enabled=y phases=2 Linecode=1P_OH_AL_2/0_Rucina_2

New Line.l(r:p1udm1436-p1ulv422) Units=km Length=0.015360000000000002 bus1=p1udm1436.1.2 bus2=p1ulv422.1.2 switch=n enabled=y phases=2 Linecode=1P_UG_AL_1/0_Brenau_2

New Line.l(r:p1udm1436-p1ulv3445) Units=km Length=0.0233083 bus1=p1udm1436.1.2 bus2=p1ulv3445.1.2 switch=n enabled=y phases=2 Linecode=1P_UG_AL_1/0_Brenau_2

New Line.l(r:p1udm1436-p1udt393lv) Units=km Length=0.0191972 bus1=p1udt393lv.1.2 bus2=p1udm1436.1.2 switch=n enabled=y phases=2 Linecode=1P_UG_AL_2/0_Converse_2

New Line.l(r:p1udm1438-p1ulv4059) Units=km Length=0.014774600000000002 bus1=p1udm1438.1.2 bus2=p1ulv4059.1.2 switch=n enabled=y phases=2 Linecode=1P_UG_AL_1/0_Brenau_2

New Line.l(r:p1udm1439-p1ulv6393) Units=km Length=0.0140649 bus1=p1udm1439.1.2 bus2=p1ulv6393.1.2 switch=n enabled=y phases=2 Linecode=1P_UG_AL_1/0_Brenau_2

New Line.l(r:p1udm1440-p1ulv11091) Units=km Length=0.0140989 bus1=p1udm1440.1.2 bus2=p1ulv11091.1.2 switch=n enabled=y phases=2 Linecode=1P_UG_AL_1/0_Brenau_2

New Line.l(r:p1udm1439-p1udm1440) Units=km Length=0.009595 bus1=p1udm1439.1.2 bus2=p1udm1440.1.2 switch=n enabled=y phases=2 Linecode=1P_UG_AL_1/0_Brenau_2

New Line.l(r:p1udm1438-p1udm1439) Units=km Length=0.009595 bus1=p1udm1438.1.2 bus2=p1udm1439.1.2 switch=n enabled=y phases=2 Linecode=1P_UG_AL_2/0_Converse_2

New Line.l(r:p1udm1438-p1udt393lv) Units=km Length=0.009595 bus1=p1udt393lv.1.2 bus2=p1udm1438.1.2 switch=n enabled=y phases=2 Linecode=1P_UG_AL_4/0_Sweetbriar_2

New Line.l(r:p1udt416lv-p1ulv446) Units=km Length=0.0447922 bus1=p1udt416lv.1.2 bus2=p1ulv446.1.2 switch=n enabled=y phases=2 Linecode=1P_OH_AL_4/0_Zuzara_2

New Line.l(r:p1udt416lv-p1ulv5476) Units=km Length=0.0203013 bus1=p1udt416lv.1.2 bus2=p1ulv5476.1.2 switch=n enabled=y phases=2 Linecode=1P_OH_AL_2/0_Rucina_2

New Line.l(r:p1udt416lv-p1ulv11223) Units=km Length=0.0127001 bus1=p1udt416lv.1.2 bus2=p1ulv11223.1.2 switch=n enabled=y phases=2 Linecode=1P_OH_AL_2/0_Rucina_2

New Line.l(r:p1udm1526-p1ulv1486) Units=km Length=0.0498334 bus1=p1udm1526.1.2 bus2=p1ulv1486.1.2 switch=n enabled=y phases=2 Linecode=1P_OH_AL_4/0_Zuzara_2

New Line.l(r:p1udm1526-p1ulv3841) Units=km Length=0.0119811 bus1=p1udm1526.1.2 bus2=p1ulv3841.1.2 switch=n enabled=y phases=2 Linecode=1P_OH_AL_2/0_Rucina_2

New Line.l(r:p1udm1530-p1ulv6285) Units=km Length=0.0278218 bus1=p1udm1530.1.2 bus2=p1ulv6285.1.2 switch=n enabled=y phases=2 Linecode=1P_OH_AL_4/0_Zuzara_2

New Line.l(r:p1udm1530-p1ulv6946) Units=km Length=0.0167158 bus1=p1udm1530.1.2 bus2=p1ulv6946.1.2 switch=n enabled=y phases=2 Linecode=1P_OH_AL_2/0_Rucina_2

New Line.l(r:p1udm1526-p1udm1530) Units=km Length=0.018534300000000004 bus1=p1udm1526.1.2 bus2=p1udm1530.1.2 switch=n enabled=y phases=2 Linecode=1P_OH_AL_2/0_Rucina_2

New Line.l(r:p1udm1526-p1udt416lv) Units=km Length=0.0185425 bus1=p1udt416lv.1.2 bus2=p1udm1526.1.2 switch=n enabled=y phases=2 Linecode=1P_OH_AL_2/0_Rucina_2_3

New Line.l(r:p1udm1528-p1ulv4683) Units=km Length=0.00971002 bus1=p1udm1528.1.2 bus2=p1ulv4683.1.2 switch=n enabled=y phases=2 Linecode=1P_OH_AL_2/0_Rucina_2

New Line.l(r:p1udm1528-p1ulv11005) Units=km Length=0.0168264 bus1=p1udm1528.1.2 bus2=p1ulv11005.1.2 switch=n enabled=y phases=2 Linecode=1P_OH_AL_2/0_Rucina_2

New Line.l(r:p1udm1528-p1udt416lv) Units=km Length=0.018528600000000003 bus1=p1udt416lv.1.2 bus2=p1udm1528.1.2 switch=n enabled=y phases=2 Linecode=1P_OH_AL_2/0_Rucina_2

New Line.l(r:p1udm1534-p1ulv447) Units=km Length=0.0151735 bus1=p1udm1534.1.2 bus2=p1ulv447.1.2 switch=n enabled=y phases=2 Linecode=1P_UG_AL_1/0_Brenau_2

New Line.l(r:p1udm1534-p1udt417lv) Units=km Length=0.00978694 bus1=p1udt417lv.1.2 bus2=p1udm1534.1.2 switch=n enabled=y phases=2 Linecode=1P_UG_AL_1/0_Brenau_2

New Line.l(r:p1udm1535-p1ulv3480) Units=km Length=0.00872072 bus1=p1udm1535.1.2 bus2=p1ulv3480.1.2 switch=n enabled=y phases=2 Linecode=1P_UG_AL_1/0_Brenau_2

New Line.l(r:p1udm1535-p1udt417lv) Units=km Length=0.019581900000000003 bus1=p1udt417lv.1.2 bus2=p1udm1535.1.2 switch=n enabled=y phases=2 Linecode=1P_UG_AL_1/0_Brenau_2

New Line.l(r:p1udt418lv-p1ulv6159) Units=km Length=0.0176565 bus1=p1udt418lv.1.2 bus2=p1ulv6159.1.2 switch=n enabled=y phases=2 Linecode=1P_UG_AL_1/0_Brenau_2

New Line.l(r:p1udm1536-p1ulv448) Units=km Length=0.0177929 bus1=p1udm1536.1.2 bus2=p1ulv448.1.2 switch=n enabled=y phases=2 Linecode=1P_UG_AL_1/0_Brenau_2

New Line.l(r:p1udm1536-p1ulv12175) Units=km Length=0.0122552 bus1=p1udm1536.1.2 bus2=p1ulv12175.1.2 switch=n enabled=y phases=2 Linecode=1P_UG_AL_1/0_Brenau_2

New Line.l(r:p1udm1539-p1ulv6039) Units=km Length=0.0178847 bus1=p1udm1539.1.2 bus2=p1ulv6039.1.2 switch=n enabled=y phases=2 Linecode=1P_UG_AL_1/0_Brenau_2

New Line.l(r:p1udm1539-p1ulv7434) Units=km Length=0.0143592 bus1=p1udm1539.1.2 bus2=p1ulv7434.1.2 switch=n enabled=y phases=2 Linecode=1P_UG_AL_1/0_Brenau_2

New Line.l(r:p1udm1536-p1udm1539) Units=km Length=0.018739800000000004 bus1=p1udm1536.1.2 bus2=p1udm1539.1.2 switch=n enabled=y phases=2 Linecode=1P_UG_AL_2/0_Converse_2

New Line.l(r:p1udm1536-p1udt418lv) Units=km Length=0.00936988 bus1=p1udt418lv.1.2 bus2=p1udm1536.1.2 switch=n enabled=y phases=2 Linecode=1P_UG_AL_4/0_Sweetbriar_2

New Line.l(r:p1udm1542-p1ulv7435) Units=km Length=0.013810800000000002 bus1=p1udm1542.1.2 bus2=p1ulv7435.1.2 switch=n enabled=y phases=2 Linecode=1P_UG_AL_1/0_Brenau_2

New Line.l(r:p1udm1537-p1ulv644) Units=km Length=0.0181945 bus1=p1udm1537.1.2 bus2=p1ulv644.1.2 switch=n enabled=y phases=2 Linecode=1P_UG_AL_1/0_Brenau_2

New Line.l(r:p1udm1538-p1ulv1354) Units=km Length=0.0113237 bus1=p1udm1538.1.2 bus2=p1ulv1354.1.2 switch=n enabled=y phases=2 Linecode=1P_UG_AL_1/0_Brenau_2

New Line.l(r:p1udm1537-p1udm1538) Units=km Length=0.0166444 bus1=p1udm1537.1.2 bus2=p1udm1538.1.2 switch=n enabled=y phases=2 Linecode=1P_UG_AL_1/0_Brenau_2

...