external_data/tamu_texas_td/distribution_sample/p1uhs0_1247--p1udt2580/Loads.dss
New Load.load_p1ulv58_1 conn=wye bus1=p1ulv58.1 kV=0.12 Vminpu=0.8 Vmaxpu=1.2 model=1 kW=12.881427080810116 kvar=1.1210377991237672 Phases=1 yearly=com_kw_43878_pu

New Load.load_p1ulv58_2 conn=wye bus1=p1ulv58.2 kV=0.12 Vminpu=0.8 Vmaxpu=1.2 model=1 kW=12.881427080810116 kvar=1.1210377991237672 Phases=1 yearly=com_kw_43878_pu

New Load.load_p1ulv59_1 conn=wye bus1=p1ulv59.1 kV=0.12 Vminpu=0.8 Vmaxpu=1.2 model=1 kW=4.632153192562984 kvar=1.0646728405756793 Phases=1 yearly=res_kw_11268_pu

New Load.load_p1ulv59_2 conn=wye bus1=p1ulv59.2 kV=0.12 Vminpu=0.8 Vmaxpu=1.2 model=1 kW=4.632153192562984 kvar=1.0646728405756793 Phases=1 yearly=res_kw_11268_pu

New Load.load_p1ulv63_1 conn=wye bus1=p1ulv63.1 kV=0.12 Vminpu=0.8 Vmaxpu=1.2 model=1 kW=5.691543528113089 kvar=1.5564485607853333 Phases=1 yearly=res_kw_9613_pu

New Load.load_p1ulv63_2 conn=wye bus1=p1ulv63.2 kV=0.12 Vminpu=0.8 Vmaxpu=1.2 model=1 kW=5.691543528113089 kvar=1.5564485607853333 Phases=1 yearly=res_kw_9613_pu

New Load.load_p1ulv89_1 conn=wye bus1=p1ulv89.1 kV=0.12 Vminpu=0.8 Vmaxpu=1.2 model=1 kW=4.489590026528137 kvar=1.1660382904526916 Phases=1 yearly=res_kw_29077_pu

New Load.load_p1ulv89_2 conn=wye bus1=p1ulv89.2 kV=0.12 Vminpu=0.8 Vmaxpu=1.2 model=1 kW=4.489590026528137 kvar=1.1660382904526916 Phases=1 yearly=res_kw_29077_pu

New Load.load_p1ulv91_1 conn=wye bus1=p1ulv91.1 kV=0.12 Vminpu=0.8 Vmaxpu=1.2 model=1 kW=12.566116051178085 kvar=1.7895180830228874 Phases=1 yearly=res_kw_12679_pu

New Load.load_p1ulv91_2 conn=wye bus1=p1ulv91.2 kV=0.12 Vminpu=0.8 Vmaxpu=1.2 model=1 kW=12.566116051178085 kvar=1.7895180830228874 Phases=1 yearly=res_kw_12679_pu

New Load.load_p1ulv92_1 conn=wye bus1=p1ulv92.1 kV=0.12 Vminpu=0.8 Vmaxpu=1.2 model=1 kW=5.850494669124461 kvar=0.8234601250580765 Phases=1 yearly=res_kw_25330_pu

New Load.load_p1ulv92_2 conn=wye bus1=p1ulv92.2 kV=0.12 Vminpu=0.8 Vmaxpu=1.2 model=1 kW=5.850494669124461 kvar=0.8234601250580765 Phases=1 yearly=res_kw_25330_pu

New Load.load_p1ulv96_1 conn=wye bus1=p1ulv96.1 kV=0.12 Vminpu=0.8 Vmaxpu=1.2 model=1 kW=2.2101728510748058 kvar=0.20993779553588798 Phases=1 yearly=res_kw_36642_pu

New Load.load_p1ulv96_2 conn=wye bus1=p1ulv96.2 kV=0.12 Vminpu=0.8 Vmaxpu=1.2 model=1 kW=2.2101728510748058 kvar=0.20993779553588798 Phases=1 yearly=res_kw_36642_pu

New Load.load_p1ulv97_1 conn=wye bus1=p1ulv97.1 kV=0.12 Vminpu=0.8 Vmaxpu=1.2 model=1 kW=12.266637158768887 kvar=3.219535874224193 Phases=1 yearly=com_kw_36075_pu

New Load.load_p1ulv97_2 conn=wye bus1=p1ulv97.2 kV=0.12 Vminpu=0.8 Vmaxpu=1.2 model=1 kW=12.266637158768887 kvar=3.219535874224193 Phases=1 yearly=com_kw_36075_pu

New Load.load_p1ulv98_1 conn=wye bus1=p1ulv98.1 kV=0.12 Vminpu=0.8 Vmaxpu=1.2 model=1 kW=5.850494669124461 kvar=0.8234601250580765 Phases=1 yearly=res_kw_25330_pu

New Load.load_p1ulv98_2 conn=wye bus1=p1ulv98.2 kV=0.12 Vminpu=0.8 Vmaxpu=1.2 model=1 kW=5.850494669124461 kvar=0.8234601250580765 Phases=1 yearly=res_kw_25330_pu

New Load.load_p1ulv99 conn=wye bus1=p1ulv99.1.2.3 kV=0.48 Vminpu=0.8 Vmaxpu=1.2 model=1 kW=53.8246702451432 kvar=14.927205597369769 Phases=3 yearly=res_kw_33222_pu

New Load.load_p1ulv100_1 conn=wye bus1=p1ulv100.1 kV=0.12 Vminpu=0.8 Vmaxpu=1.2 model=1 kW=3.6744255292954704 kvar=1.5688184342021758 Phases=1 yearly=res_kw_44276_pu

New Load.load_p1ulv100_2 conn=wye bus1=p1ulv100.2 kV=0.12 Vminpu=0.8 Vmaxpu=1.2 model=1 kW=3.6744255292954704 kvar=1.5688184342021758 Phases=1 yearly=res_kw_44276_pu

New Load.load_p1ulv102_1 conn=wye bus1=p1ulv102.1 kV=0.12 Vminpu=0.8 Vmaxpu=1.2 model=1 kW=5.850494669124461 kvar=0.8234601250580765 Phases=1 yearly=res_kw_25330_pu

New Load.load_p1ulv102_2 conn=wye bus1=p1ulv102.2 kV=0.12 Vminpu=0.8 Vmaxpu=1.2 model=1 kW=5.850494669124461 kvar=0.8234601250580765 Phases=1 yearly=res_kw_25330_pu

New Load.load_p1ulv103_1 conn=wye bus1=p1ulv103.1 kV=0.12 Vminpu=0.8 Vmaxpu=1.2 model=1 kW=6.542796606095953 kvar=1.3738960086195124 Phases=1 yearly=res_kw_4691_pu

New Load.load_p1ulv103_2 conn=wye bus1=p1ulv103.2 kV=0.12 Vminpu=0.8 Vmaxpu=1.2 model=1 kW=6.542796606095953 kvar=1.3738960086195124 Phases=1 yearly=res_kw_4691_pu

New Load.load_p1ulv106_1 conn=wye bus1=p1ulv106.1 kV=0.12 Vminpu=0.8 Vmaxpu=1.2 model=1 kW=11.241842814813523 kvar=0.6110659267595828 Phases=1 yearly=com_kw_35147_pu

New Load.load_p1ulv106_2 conn=wye bus1=p1ulv106.2 kV=0.12 Vminpu=0.8 Vmaxpu=1.2 model=1 kW=11.241842814813523 kvar=0.6110659267595828 Phases=1 yearly=com_kw_35147_pu

New Load.load_p1ulv107_1 conn=wye bus1=p1ulv107.1 kV=0.12 Vminpu=0.8 Vmaxpu=1.2 model=1 kW=5.850494669124461 kvar=0.8234601250580765 Phases=1 yearly=res_kw_25330_pu

New Load.load_p1ulv107_2 conn=wye bus1=p1ulv107.2 kV=0.12 Vminpu=0.8 Vmaxpu=1.2 model=1 kW=5.850494669124461 kvar=0.8234601250580765 Phases=1 yearly=res_kw_25330_pu

New Load.load_p1ulv108_1 conn=wye bus1=p1ulv108.1 kV=0.12 Vminpu=0.8 Vmaxpu=1.2 model=1 kW=6.542796606095953 kvar=1.3738960086195124 Phases=1 yearly=res_kw_4691_pu

...